
---------- Begin Simulation Statistics ----------
simSeconds                                   1.359825                       # Number of seconds simulated (Second)
simTicks                                 1359825252000                       # Number of ticks simulated (Tick)
finalTick                                1359825252000                       # Number of ticks from beginning of simulation (restored from checkpoints and never reset) (Tick)
simFreq                                  1000000000000                       # The number of ticks per simulated second ((Tick/Second))
hostSeconds                                   4128.30                       # Real time elapsed on the host (Second)
hostTickRate                                329391208                       # The number of ticks simulated per host second (ticks/s) ((Tick/Second))
hostMemory                                     821824                       # Number of bytes of host memory used (Byte)
simInsts                                    712316432                       # Number of instructions simulated (Count)
simOps                                      720705118                       # Number of ops (including micro ops) simulated (Count)
hostInstRate                                   172545                       # Simulator instruction rate (inst/s) ((Count/Second))
hostOpRate                                     174577                       # Simulator op (including micro ops) rate (op/s) ((Count/Second))
system.adapters0.cpuReqBuffer.m_msg_count            1                       # Number of messages passed the buffer (Count)
system.adapters0.cpuReqBuffer.m_buf_msgs     0.000000                       # Average number of messages in buffer ((Count/Tick))
system.adapters0.cpuReqBuffer.m_occupancy     0.000000                       # Average occupancy of buffer capacity ((Ratio/Tick))
system.adapters0.power_state.pwrStateResidencyTicks::UNDEFINED 1359825252000                       # Cumulative time (in ticks) in various power states (Tick)
system.adapters1.networkReqBuffer.m_msg_count            1                       # Number of messages passed the buffer (Count)
system.adapters1.networkReqBuffer.m_buf_msgs     0.000000                       # Average number of messages in buffer ((Count/Tick))
system.adapters1.networkReqBuffer.m_occupancy     0.000000                       # Average occupancy of buffer capacity ((Ratio/Tick))
system.adapters1.power_state.pwrStateResidencyTicks::UNDEFINED 1359825252000                       # Cumulative time (in ticks) in various power states (Tick)
system.adapters2.cpuReqBuffer.m_msg_count            1                       # Number of messages passed the buffer (Count)
system.adapters2.cpuReqBuffer.m_buf_msgs     0.000000                       # Average number of messages in buffer ((Count/Tick))
system.adapters2.cpuReqBuffer.m_occupancy     0.000000                       # Average occupancy of buffer capacity ((Ratio/Tick))
system.adapters2.power_state.pwrStateResidencyTicks::UNDEFINED 1359825252000                       # Cumulative time (in ticks) in various power states (Tick)
system.adapters3.networkReqBuffer.m_msg_count            1                       # Number of messages passed the buffer (Count)
system.adapters3.networkReqBuffer.m_buf_msgs     0.000000                       # Average number of messages in buffer ((Count/Tick))
system.adapters3.networkReqBuffer.m_occupancy     0.000000                       # Average occupancy of buffer capacity ((Ratio/Tick))
system.adapters3.power_state.pwrStateResidencyTicks::UNDEFINED 1359825252000                       # Cumulative time (in ticks) in various power states (Tick)
system.am_network.msg_count.Control                 4                       (Unspecified)
system.am_network.msg_byte.Control                 32                       (Unspecified)
system.am_network.int_links0.buffers1.m_msg_count            1                       # Number of messages passed the buffer (Count)
system.am_network.int_links0.buffers1.m_buf_msgs     0.000000                       # Average number of messages in buffer ((Count/Tick))
system.am_network.int_links2.buffers1.m_msg_count            1                       # Number of messages passed the buffer (Count)
system.am_network.int_links2.buffers1.m_buf_msgs     0.000000                       # Average number of messages in buffer ((Count/Tick))
system.am_network.power_state.pwrStateResidencyTicks::UNDEFINED 1359825252000                       # Cumulative time (in ticks) in various power states (Tick)
system.am_network.routers0.percent_links_utilized     0.000000                       (Unspecified)
system.am_network.routers0.msg_count.Control::1            1                       (Unspecified)
system.am_network.routers0.msg_bytes.Control::1            8                       (Unspecified)
system.am_network.routers0.port_buffers3.m_msg_count            1                       # Number of messages passed the buffer (Count)
system.am_network.routers0.port_buffers3.m_buf_msgs     0.000000                       # Average number of messages in buffer ((Count/Tick))
system.am_network.routers0.port_buffers3.m_occupancy     0.000000                       # Average occupancy of buffer capacity ((Ratio/Tick))
system.am_network.routers0.power_state.pwrStateResidencyTicks::UNDEFINED 1359825252000                       # Cumulative time (in ticks) in various power states (Tick)
system.am_network.routers0.throttle00.acc_link_utilization            0                       # Accumulated link utilization (Count)
system.am_network.routers0.throttle00.link_utilization            0                       # Average link utilization (Ratio)
system.am_network.routers0.throttle00.total_msg_count            0                       # Total number of messages forwarded by this switch (Count)
system.am_network.routers0.throttle00.total_msg_bytes            0                       # Total number of bytes forwarded by this switch (Byte)
system.am_network.routers0.throttle00.total_data_msg_bytes            0                       # Total number of data bytes forwarded by this switch (Byte)
system.am_network.routers0.throttle00.total_msg_wait_time            0                       # Total time spend forwarding messages (Tick)
system.am_network.routers0.throttle00.total_stall_cy            0                       # Total time spent blocked on any output link (Cycle)
system.am_network.routers0.throttle00.total_bw_sat_cy            0                       # Total time bandwidth was saturated on any output link (Cycle)
system.am_network.routers0.throttle00.avg_msg_wait_time          nan                       # Average time a message took to be forwarded (Ratio)
system.am_network.routers0.throttle00.avg_bandwidth         0.00                       # Average bandwidth (GB/s) (Ratio)
system.am_network.routers0.throttle00.avg_useful_bandwidth         0.00                       # Average usefull (only data) bandwidth (GB/s) (Ratio)
system.am_network.routers0.throttle01.acc_link_utilization     0.500000                       # Accumulated link utilization (Count)
system.am_network.routers0.throttle01.link_utilization     0.000000                       # Average link utilization (Ratio)
system.am_network.routers0.throttle01.total_msg_count            1                       # Total number of messages forwarded by this switch (Count)
system.am_network.routers0.throttle01.total_msg_bytes            8                       # Total number of bytes forwarded by this switch (Byte)
system.am_network.routers0.throttle01.total_data_msg_bytes            0                       # Total number of data bytes forwarded by this switch (Byte)
system.am_network.routers0.throttle01.total_msg_wait_time            0                       # Total time spend forwarding messages (Tick)
system.am_network.routers0.throttle01.total_stall_cy            0                       # Total time spent blocked on any output link (Cycle)
system.am_network.routers0.throttle01.total_bw_sat_cy            0                       # Total time bandwidth was saturated on any output link (Cycle)
system.am_network.routers0.throttle01.avg_msg_wait_time            0                       # Average time a message took to be forwarded (Ratio)
system.am_network.routers0.throttle01.avg_bandwidth         0.00                       # Average bandwidth (GB/s) (Ratio)
system.am_network.routers0.throttle01.avg_useful_bandwidth         0.00                       # Average usefull (only data) bandwidth (GB/s) (Ratio)
system.am_network.routers0.throttle01.msg_count.Control::1            1                       (Unspecified)
system.am_network.routers0.throttle01.msg_bytes.Control::1            8                       (Unspecified)
system.am_network.routers1.percent_links_utilized     0.000000                       (Unspecified)
system.am_network.routers1.msg_count.Control::1            1                       (Unspecified)
system.am_network.routers1.msg_bytes.Control::1            8                       (Unspecified)
system.am_network.routers1.port_buffers1.m_msg_count            1                       # Number of messages passed the buffer (Count)
system.am_network.routers1.port_buffers1.m_buf_msgs     0.000000                       # Average number of messages in buffer ((Count/Tick))
system.am_network.routers1.port_buffers1.m_occupancy     0.000000                       # Average occupancy of buffer capacity ((Ratio/Tick))
system.am_network.routers1.power_state.pwrStateResidencyTicks::UNDEFINED 1359825252000                       # Cumulative time (in ticks) in various power states (Tick)
system.am_network.routers1.throttle00.acc_link_utilization     0.500000                       # Accumulated link utilization (Count)
system.am_network.routers1.throttle00.link_utilization     0.000000                       # Average link utilization (Ratio)
system.am_network.routers1.throttle00.total_msg_count            1                       # Total number of messages forwarded by this switch (Count)
system.am_network.routers1.throttle00.total_msg_bytes            8                       # Total number of bytes forwarded by this switch (Byte)
system.am_network.routers1.throttle00.total_data_msg_bytes            0                       # Total number of data bytes forwarded by this switch (Byte)
system.am_network.routers1.throttle00.total_msg_wait_time            0                       # Total time spend forwarding messages (Tick)
system.am_network.routers1.throttle00.total_stall_cy            0                       # Total time spent blocked on any output link (Cycle)
system.am_network.routers1.throttle00.total_bw_sat_cy            0                       # Total time bandwidth was saturated on any output link (Cycle)
system.am_network.routers1.throttle00.avg_msg_wait_time            0                       # Average time a message took to be forwarded (Ratio)
system.am_network.routers1.throttle00.avg_bandwidth         0.00                       # Average bandwidth (GB/s) (Ratio)
system.am_network.routers1.throttle00.avg_useful_bandwidth         0.00                       # Average usefull (only data) bandwidth (GB/s) (Ratio)
system.am_network.routers1.throttle00.msg_count.Control::1            1                       (Unspecified)
system.am_network.routers1.throttle00.msg_bytes.Control::1            8                       (Unspecified)
system.am_network.routers1.throttle01.acc_link_utilization            0                       # Accumulated link utilization (Count)
system.am_network.routers1.throttle01.link_utilization            0                       # Average link utilization (Ratio)
system.am_network.routers1.throttle01.total_msg_count            0                       # Total number of messages forwarded by this switch (Count)
system.am_network.routers1.throttle01.total_msg_bytes            0                       # Total number of bytes forwarded by this switch (Byte)
system.am_network.routers1.throttle01.total_data_msg_bytes            0                       # Total number of data bytes forwarded by this switch (Byte)
system.am_network.routers1.throttle01.total_msg_wait_time            0                       # Total time spend forwarding messages (Tick)
system.am_network.routers1.throttle01.total_stall_cy            0                       # Total time spent blocked on any output link (Cycle)
system.am_network.routers1.throttle01.total_bw_sat_cy            0                       # Total time bandwidth was saturated on any output link (Cycle)
system.am_network.routers1.throttle01.avg_msg_wait_time          nan                       # Average time a message took to be forwarded (Ratio)
system.am_network.routers1.throttle01.avg_bandwidth         0.00                       # Average bandwidth (GB/s) (Ratio)
system.am_network.routers1.throttle01.avg_useful_bandwidth         0.00                       # Average usefull (only data) bandwidth (GB/s) (Ratio)
system.am_network.routers1.throttle02.acc_link_utilization            0                       # Accumulated link utilization (Count)
system.am_network.routers1.throttle02.link_utilization            0                       # Average link utilization (Ratio)
system.am_network.routers1.throttle02.total_msg_count            0                       # Total number of messages forwarded by this switch (Count)
system.am_network.routers1.throttle02.total_msg_bytes            0                       # Total number of bytes forwarded by this switch (Byte)
system.am_network.routers1.throttle02.total_data_msg_bytes            0                       # Total number of data bytes forwarded by this switch (Byte)
system.am_network.routers1.throttle02.total_msg_wait_time            0                       # Total time spend forwarding messages (Tick)
system.am_network.routers1.throttle02.total_stall_cy            0                       # Total time spent blocked on any output link (Cycle)
system.am_network.routers1.throttle02.total_bw_sat_cy            0                       # Total time bandwidth was saturated on any output link (Cycle)
system.am_network.routers1.throttle02.avg_msg_wait_time          nan                       # Average time a message took to be forwarded (Ratio)
system.am_network.routers1.throttle02.avg_bandwidth         0.00                       # Average bandwidth (GB/s) (Ratio)
system.am_network.routers1.throttle02.avg_useful_bandwidth         0.00                       # Average usefull (only data) bandwidth (GB/s) (Ratio)
system.am_network.routers2.percent_links_utilized     0.000000                       (Unspecified)
system.am_network.routers2.msg_count.Control::1            1                       (Unspecified)
system.am_network.routers2.msg_bytes.Control::1            8                       (Unspecified)
system.am_network.routers2.port_buffers5.m_msg_count            1                       # Number of messages passed the buffer (Count)
system.am_network.routers2.port_buffers5.m_buf_msgs     0.000000                       # Average number of messages in buffer ((Count/Tick))
system.am_network.routers2.port_buffers5.m_occupancy     0.000000                       # Average occupancy of buffer capacity ((Ratio/Tick))
system.am_network.routers2.power_state.pwrStateResidencyTicks::UNDEFINED 1359825252000                       # Cumulative time (in ticks) in various power states (Tick)
system.am_network.routers2.throttle00.acc_link_utilization            0                       # Accumulated link utilization (Count)
system.am_network.routers2.throttle00.link_utilization            0                       # Average link utilization (Ratio)
system.am_network.routers2.throttle00.total_msg_count            0                       # Total number of messages forwarded by this switch (Count)
system.am_network.routers2.throttle00.total_msg_bytes            0                       # Total number of bytes forwarded by this switch (Byte)
system.am_network.routers2.throttle00.total_data_msg_bytes            0                       # Total number of data bytes forwarded by this switch (Byte)
system.am_network.routers2.throttle00.total_msg_wait_time            0                       # Total time spend forwarding messages (Tick)
system.am_network.routers2.throttle00.total_stall_cy            0                       # Total time spent blocked on any output link (Cycle)
system.am_network.routers2.throttle00.total_bw_sat_cy            0                       # Total time bandwidth was saturated on any output link (Cycle)
system.am_network.routers2.throttle00.avg_msg_wait_time          nan                       # Average time a message took to be forwarded (Ratio)
system.am_network.routers2.throttle00.avg_bandwidth         0.00                       # Average bandwidth (GB/s) (Ratio)
system.am_network.routers2.throttle00.avg_useful_bandwidth         0.00                       # Average usefull (only data) bandwidth (GB/s) (Ratio)
system.am_network.routers2.throttle01.acc_link_utilization            0                       # Accumulated link utilization (Count)
system.am_network.routers2.throttle01.link_utilization            0                       # Average link utilization (Ratio)
system.am_network.routers2.throttle01.total_msg_count            0                       # Total number of messages forwarded by this switch (Count)
system.am_network.routers2.throttle01.total_msg_bytes            0                       # Total number of bytes forwarded by this switch (Byte)
system.am_network.routers2.throttle01.total_data_msg_bytes            0                       # Total number of data bytes forwarded by this switch (Byte)
system.am_network.routers2.throttle01.total_msg_wait_time            0                       # Total time spend forwarding messages (Tick)
system.am_network.routers2.throttle01.total_stall_cy            0                       # Total time spent blocked on any output link (Cycle)
system.am_network.routers2.throttle01.total_bw_sat_cy            0                       # Total time bandwidth was saturated on any output link (Cycle)
system.am_network.routers2.throttle01.avg_msg_wait_time          nan                       # Average time a message took to be forwarded (Ratio)
system.am_network.routers2.throttle01.avg_bandwidth         0.00                       # Average bandwidth (GB/s) (Ratio)
system.am_network.routers2.throttle01.avg_useful_bandwidth         0.00                       # Average usefull (only data) bandwidth (GB/s) (Ratio)
system.am_network.routers2.throttle02.acc_link_utilization     0.500000                       # Accumulated link utilization (Count)
system.am_network.routers2.throttle02.link_utilization     0.000000                       # Average link utilization (Ratio)
system.am_network.routers2.throttle02.total_msg_count            1                       # Total number of messages forwarded by this switch (Count)
system.am_network.routers2.throttle02.total_msg_bytes            8                       # Total number of bytes forwarded by this switch (Byte)
system.am_network.routers2.throttle02.total_data_msg_bytes            0                       # Total number of data bytes forwarded by this switch (Byte)
system.am_network.routers2.throttle02.total_msg_wait_time            0                       # Total time spend forwarding messages (Tick)
system.am_network.routers2.throttle02.total_stall_cy            0                       # Total time spent blocked on any output link (Cycle)
system.am_network.routers2.throttle02.total_bw_sat_cy            0                       # Total time bandwidth was saturated on any output link (Cycle)
system.am_network.routers2.throttle02.avg_msg_wait_time            0                       # Average time a message took to be forwarded (Ratio)
system.am_network.routers2.throttle02.avg_bandwidth         0.00                       # Average bandwidth (GB/s) (Ratio)
system.am_network.routers2.throttle02.avg_useful_bandwidth         0.00                       # Average usefull (only data) bandwidth (GB/s) (Ratio)
system.am_network.routers2.throttle02.msg_count.Control::1            1                       (Unspecified)
system.am_network.routers2.throttle02.msg_bytes.Control::1            8                       (Unspecified)
system.am_network.routers3.percent_links_utilized     0.000000                       (Unspecified)
system.am_network.routers3.msg_count.Control::1            1                       (Unspecified)
system.am_network.routers3.msg_bytes.Control::1            8                       (Unspecified)
system.am_network.routers3.port_buffers1.m_msg_count            1                       # Number of messages passed the buffer (Count)
system.am_network.routers3.port_buffers1.m_buf_msgs     0.000000                       # Average number of messages in buffer ((Count/Tick))
system.am_network.routers3.port_buffers1.m_occupancy     0.000000                       # Average occupancy of buffer capacity ((Ratio/Tick))
system.am_network.routers3.power_state.pwrStateResidencyTicks::UNDEFINED 1359825252000                       # Cumulative time (in ticks) in various power states (Tick)
system.am_network.routers3.throttle00.acc_link_utilization     0.500000                       # Accumulated link utilization (Count)
system.am_network.routers3.throttle00.link_utilization     0.000000                       # Average link utilization (Ratio)
system.am_network.routers3.throttle00.total_msg_count            1                       # Total number of messages forwarded by this switch (Count)
system.am_network.routers3.throttle00.total_msg_bytes            8                       # Total number of bytes forwarded by this switch (Byte)
system.am_network.routers3.throttle00.total_data_msg_bytes            0                       # Total number of data bytes forwarded by this switch (Byte)
system.am_network.routers3.throttle00.total_msg_wait_time            0                       # Total time spend forwarding messages (Tick)
system.am_network.routers3.throttle00.total_stall_cy            0                       # Total time spent blocked on any output link (Cycle)
system.am_network.routers3.throttle00.total_bw_sat_cy            0                       # Total time bandwidth was saturated on any output link (Cycle)
system.am_network.routers3.throttle00.avg_msg_wait_time            0                       # Average time a message took to be forwarded (Ratio)
system.am_network.routers3.throttle00.avg_bandwidth         0.00                       # Average bandwidth (GB/s) (Ratio)
system.am_network.routers3.throttle00.avg_useful_bandwidth         0.00                       # Average usefull (only data) bandwidth (GB/s) (Ratio)
system.am_network.routers3.throttle00.msg_count.Control::1            1                       (Unspecified)
system.am_network.routers3.throttle00.msg_bytes.Control::1            8                       (Unspecified)
system.am_network.routers3.throttle01.acc_link_utilization            0                       # Accumulated link utilization (Count)
system.am_network.routers3.throttle01.link_utilization            0                       # Average link utilization (Ratio)
system.am_network.routers3.throttle01.total_msg_count            0                       # Total number of messages forwarded by this switch (Count)
system.am_network.routers3.throttle01.total_msg_bytes            0                       # Total number of bytes forwarded by this switch (Byte)
system.am_network.routers3.throttle01.total_data_msg_bytes            0                       # Total number of data bytes forwarded by this switch (Byte)
system.am_network.routers3.throttle01.total_msg_wait_time            0                       # Total time spend forwarding messages (Tick)
system.am_network.routers3.throttle01.total_stall_cy            0                       # Total time spent blocked on any output link (Cycle)
system.am_network.routers3.throttle01.total_bw_sat_cy            0                       # Total time bandwidth was saturated on any output link (Cycle)
system.am_network.routers3.throttle01.avg_msg_wait_time          nan                       # Average time a message took to be forwarded (Ratio)
system.am_network.routers3.throttle01.avg_bandwidth         0.00                       # Average bandwidth (GB/s) (Ratio)
system.am_network.routers3.throttle01.avg_useful_bandwidth         0.00                       # Average usefull (only data) bandwidth (GB/s) (Ratio)
system.clk_domain.clock                          1000                       # Clock period in ticks (Tick)
system.clk_domain.voltage_domain.voltage            1                       # Voltage in Volts (Volt)
system.cpu0.numCycles                      1359825252                       # Number of cpu cycles simulated (Cycle)
system.cpu0.numWorkItemsStarted                     0                       # Number of work items this cpu started (Count)
system.cpu0.numWorkItemsCompleted                   0                       # Number of work items this cpu completed (Count)
system.cpu0.exec_context.thread_0.numInsts    178122497                       # Number of instructions committed (Count)
system.cpu0.exec_context.thread_0.numOps    180219705                       # Number of ops (including micro ops) committed (Count)
system.cpu0.exec_context.thread_0.numIntAluAccesses    171965920                       # Number of integer alu accesses (Count)
system.cpu0.exec_context.thread_0.numFpAluAccesses           12                       # Number of float alu accesses (Count)
system.cpu0.exec_context.thread_0.numVecAluAccesses            0                       # Number of vector alu accesses (Count)
system.cpu0.exec_context.thread_0.numCallsReturns     20974335                       # Number of times a function call or return occured (Count)
system.cpu0.exec_context.thread_0.numCondCtrlInsts     24062017                       # Number of instructions that are conditional controls (Count)
system.cpu0.exec_context.thread_0.numIntInsts    171965920                       # Number of integer instructions (Count)
system.cpu0.exec_context.thread_0.numFpInsts           12                       # Number of float instructions (Count)
system.cpu0.exec_context.thread_0.numVecInsts            0                       # Number of vector instructions (Count)
system.cpu0.exec_context.thread_0.numIntRegReads    155131617                       # Number of times the integer registers were read (Count)
system.cpu0.exec_context.thread_0.numIntRegWrites    122727003                       # Number of times the integer registers were written (Count)
system.cpu0.exec_context.thread_0.numFpRegReads           12                       # Number of times the floating registers were read (Count)
system.cpu0.exec_context.thread_0.numFpRegWrites            0                       # Number of times the floating registers were written (Count)
system.cpu0.exec_context.thread_0.numVecRegReads            0                       # Number of times the vector registers were read (Count)
system.cpu0.exec_context.thread_0.numVecRegWrites            0                       # Number of times the vector registers were written (Count)
system.cpu0.exec_context.thread_0.numVecPredRegReads            0                       # Number of times the predicate registers were read (Count)
system.cpu0.exec_context.thread_0.numVecPredRegWrites            0                       # Number of times the predicate registers were written (Count)
system.cpu0.exec_context.thread_0.numMiscRegReads      4194377                       # Number of times the Misc registers were read (Count)
system.cpu0.exec_context.thread_0.numMiscRegWrites            7                       # Number of times the Misc registers were written (Count)
system.cpu0.exec_context.thread_0.numMemRefs     46162058                       # Number of memory refs (Count)
system.cpu0.exec_context.thread_0.numLoadInsts     27278114                       # Number of load instructions (Count)
system.cpu0.exec_context.thread_0.numStoreInsts     18883944                       # Number of store instructions (Count)
system.cpu0.exec_context.thread_0.numIdleCycles 878159130.000354                       # Number of idle cycles (Cycle)
system.cpu0.exec_context.thread_0.numBusyCycles 481666121.999646                       # Number of busy cycles (Cycle)
system.cpu0.exec_context.thread_0.notIdleFraction     0.354212                       # Percentage of non-idle cycles (Ratio)
system.cpu0.exec_context.thread_0.idleFraction     0.645788                       # Percentage of idle cycles (Ratio)
system.cpu0.exec_context.thread_0.numBranches     49095878                       # Number of branches fetched (Count)
system.cpu0.exec_context.thread_0.statExecutedInstType::No_OpClass      8388808      4.55%      4.55% # Class of executed instruction. (Count)
system.cpu0.exec_context.thread_0.statExecutedInstType::IntAlu    129863157     70.42%     74.97% # Class of executed instruction. (Count)
system.cpu0.exec_context.thread_0.statExecutedInstType::IntMult           19      0.00%     74.97% # Class of executed instruction. (Count)
system.cpu0.exec_context.thread_0.statExecutedInstType::IntDiv            9      0.00%     74.97% # Class of executed instruction. (Count)
system.cpu0.exec_context.thread_0.statExecutedInstType::FloatAdd            0      0.00%     74.97% # Class of executed instruction. (Count)
system.cpu0.exec_context.thread_0.statExecutedInstType::FloatCmp            0      0.00%     74.97% # Class of executed instruction. (Count)
system.cpu0.exec_context.thread_0.statExecutedInstType::FloatCvt            0      0.00%     74.97% # Class of executed instruction. (Count)
system.cpu0.exec_context.thread_0.statExecutedInstType::FloatMult            0      0.00%     74.97% # Class of executed instruction. (Count)
system.cpu0.exec_context.thread_0.statExecutedInstType::FloatMultAcc            0      0.00%     74.97% # Class of executed instruction. (Count)
system.cpu0.exec_context.thread_0.statExecutedInstType::FloatDiv            0      0.00%     74.97% # Class of executed instruction. (Count)
system.cpu0.exec_context.thread_0.statExecutedInstType::FloatMisc            0      0.00%     74.97% # Class of executed instruction. (Count)
system.cpu0.exec_context.thread_0.statExecutedInstType::FloatSqrt            0      0.00%     74.97% # Class of executed instruction. (Count)
system.cpu0.exec_context.thread_0.statExecutedInstType::SimdAdd            0      0.00%     74.97% # Class of executed instruction. (Count)
system.cpu0.exec_context.thread_0.statExecutedInstType::SimdAddAcc            0      0.00%     74.97% # Class of executed instruction. (Count)
system.cpu0.exec_context.thread_0.statExecutedInstType::SimdAlu            0      0.00%     74.97% # Class of executed instruction. (Count)
system.cpu0.exec_context.thread_0.statExecutedInstType::SimdCmp            0      0.00%     74.97% # Class of executed instruction. (Count)
system.cpu0.exec_context.thread_0.statExecutedInstType::SimdCvt            0      0.00%     74.97% # Class of executed instruction. (Count)
system.cpu0.exec_context.thread_0.statExecutedInstType::SimdMisc            0      0.00%     74.97% # Class of executed instruction. (Count)
system.cpu0.exec_context.thread_0.statExecutedInstType::SimdMult            0      0.00%     74.97% # Class of executed instruction. (Count)
system.cpu0.exec_context.thread_0.statExecutedInstType::SimdMultAcc            0      0.00%     74.97% # Class of executed instruction. (Count)
system.cpu0.exec_context.thread_0.statExecutedInstType::SimdShift            0      0.00%     74.97% # Class of executed instruction. (Count)
system.cpu0.exec_context.thread_0.statExecutedInstType::SimdShiftAcc            0      0.00%     74.97% # Class of executed instruction. (Count)
system.cpu0.exec_context.thread_0.statExecutedInstType::SimdDiv            0      0.00%     74.97% # Class of executed instruction. (Count)
system.cpu0.exec_context.thread_0.statExecutedInstType::SimdSqrt            0      0.00%     74.97% # Class of executed instruction. (Count)
system.cpu0.exec_context.thread_0.statExecutedInstType::SimdFloatAdd            0      0.00%     74.97% # Class of executed instruction. (Count)
system.cpu0.exec_context.thread_0.statExecutedInstType::SimdFloatAlu            0      0.00%     74.97% # Class of executed instruction. (Count)
system.cpu0.exec_context.thread_0.statExecutedInstType::SimdFloatCmp            0      0.00%     74.97% # Class of executed instruction. (Count)
system.cpu0.exec_context.thread_0.statExecutedInstType::SimdFloatCvt            0      0.00%     74.97% # Class of executed instruction. (Count)
system.cpu0.exec_context.thread_0.statExecutedInstType::SimdFloatDiv            0      0.00%     74.97% # Class of executed instruction. (Count)
system.cpu0.exec_context.thread_0.statExecutedInstType::SimdFloatMisc            0      0.00%     74.97% # Class of executed instruction. (Count)
system.cpu0.exec_context.thread_0.statExecutedInstType::SimdFloatMult            0      0.00%     74.97% # Class of executed instruction. (Count)
system.cpu0.exec_context.thread_0.statExecutedInstType::SimdFloatMultAcc            0      0.00%     74.97% # Class of executed instruction. (Count)
system.cpu0.exec_context.thread_0.statExecutedInstType::SimdFloatSqrt            0      0.00%     74.97% # Class of executed instruction. (Count)
system.cpu0.exec_context.thread_0.statExecutedInstType::SimdReduceAdd            0      0.00%     74.97% # Class of executed instruction. (Count)
system.cpu0.exec_context.thread_0.statExecutedInstType::SimdReduceAlu            0      0.00%     74.97% # Class of executed instruction. (Count)
system.cpu0.exec_context.thread_0.statExecutedInstType::SimdReduceCmp            0      0.00%     74.97% # Class of executed instruction. (Count)
system.cpu0.exec_context.thread_0.statExecutedInstType::SimdFloatReduceAdd            0      0.00%     74.97% # Class of executed instruction. (Count)
system.cpu0.exec_context.thread_0.statExecutedInstType::SimdFloatReduceCmp            0      0.00%     74.97% # Class of executed instruction. (Count)
system.cpu0.exec_context.thread_0.statExecutedInstType::SimdAes            0      0.00%     74.97% # Class of executed instruction. (Count)
system.cpu0.exec_context.thread_0.statExecutedInstType::SimdAesMix            0      0.00%     74.97% # Class of executed instruction. (Count)
system.cpu0.exec_context.thread_0.statExecutedInstType::SimdSha1Hash            0      0.00%     74.97% # Class of executed instruction. (Count)
system.cpu0.exec_context.thread_0.statExecutedInstType::SimdSha1Hash2            0      0.00%     74.97% # Class of executed instruction. (Count)
system.cpu0.exec_context.thread_0.statExecutedInstType::SimdSha256Hash            0      0.00%     74.97% # Class of executed instruction. (Count)
system.cpu0.exec_context.thread_0.statExecutedInstType::SimdSha256Hash2            0      0.00%     74.97% # Class of executed instruction. (Count)
system.cpu0.exec_context.thread_0.statExecutedInstType::SimdShaSigma2            0      0.00%     74.97% # Class of executed instruction. (Count)
system.cpu0.exec_context.thread_0.statExecutedInstType::SimdShaSigma3            0      0.00%     74.97% # Class of executed instruction. (Count)
system.cpu0.exec_context.thread_0.statExecutedInstType::SimdPredAlu            0      0.00%     74.97% # Class of executed instruction. (Count)
system.cpu0.exec_context.thread_0.statExecutedInstType::MemRead     31472485     17.07%     92.03% # Class of executed instruction. (Count)
system.cpu0.exec_context.thread_0.statExecutedInstType::MemWrite     14689561      7.97%    100.00% # Class of executed instruction. (Count)
system.cpu0.exec_context.thread_0.statExecutedInstType::FloatMemRead            0      0.00%    100.00% # Class of executed instruction. (Count)
system.cpu0.exec_context.thread_0.statExecutedInstType::FloatMemWrite           12      0.00%    100.00% # Class of executed instruction. (Count)
system.cpu0.exec_context.thread_0.statExecutedInstType::IprAccess            0      0.00%    100.00% # Class of executed instruction. (Count)
system.cpu0.exec_context.thread_0.statExecutedInstType::InstPrefetch            0      0.00%    100.00% # Class of executed instruction. (Count)
system.cpu0.exec_context.thread_0.statExecutedInstType::total    184414051                       # Class of executed instruction. (Count)
system.cpu0.mmu.dtb.readHits                        0                       # read hits (Count)
system.cpu0.mmu.dtb.readMisses                      0                       # read misses (Count)
system.cpu0.mmu.dtb.readAccesses                    0                       # read accesses (Count)
system.cpu0.mmu.dtb.writeHits                       0                       # write hits (Count)
system.cpu0.mmu.dtb.writeMisses                     0                       # write misses (Count)
system.cpu0.mmu.dtb.writeAccesses                   0                       # write accesses (Count)
system.cpu0.mmu.dtb.hits                            0                       # Total TLB (read and write) hits (Count)
system.cpu0.mmu.dtb.misses                          0                       # Total TLB (read and write) misses (Count)
system.cpu0.mmu.dtb.accesses                        0                       # Total TLB (read and write) accesses (Count)
system.cpu0.mmu.dtb.walker.power_state.pwrStateResidencyTicks::UNDEFINED 1359825252000                       # Cumulative time (in ticks) in various power states (Tick)
system.cpu0.mmu.itb.readHits                        0                       # read hits (Count)
system.cpu0.mmu.itb.readMisses                      0                       # read misses (Count)
system.cpu0.mmu.itb.readAccesses                    0                       # read accesses (Count)
system.cpu0.mmu.itb.writeHits                       0                       # write hits (Count)
system.cpu0.mmu.itb.writeMisses                     0                       # write misses (Count)
system.cpu0.mmu.itb.writeAccesses                   0                       # write accesses (Count)
system.cpu0.mmu.itb.hits                            0                       # Total TLB (read and write) hits (Count)
system.cpu0.mmu.itb.misses                          0                       # Total TLB (read and write) misses (Count)
system.cpu0.mmu.itb.accesses                        0                       # Total TLB (read and write) accesses (Count)
system.cpu0.mmu.itb.walker.power_state.pwrStateResidencyTicks::UNDEFINED 1359825252000                       # Cumulative time (in ticks) in various power states (Tick)
system.cpu0.power_state.numTransitions        4194304                       # Number of power state transitions (Count)
system.cpu0.power_state.ticksClkGated::samples      2097152                       # Distribution of time spent in the clock gated state (Tick)
system.cpu0.power_state.ticksClkGated::mean 418738.903999                       # Distribution of time spent in the clock gated state (Tick)
system.cpu0.power_state.ticksClkGated::stdev 30315.640472                       # Distribution of time spent in the clock gated state (Tick)
system.cpu0.power_state.ticksClkGated::1000-5e+10      2097152    100.00%    100.00% # Distribution of time spent in the clock gated state (Tick)
system.cpu0.power_state.ticksClkGated::min_value        67000                       # Distribution of time spent in the clock gated state (Tick)
system.cpu0.power_state.ticksClkGated::max_value      2062000                       # Distribution of time spent in the clock gated state (Tick)
system.cpu0.power_state.ticksClkGated::total      2097152                       # Distribution of time spent in the clock gated state (Tick)
system.cpu0.power_state.pwrStateResidencyTicks::ON 481666122000                       # Cumulative time (in ticks) in various power states (Tick)
system.cpu0.power_state.pwrStateResidencyTicks::CLK_GATED 878159130000                       # Cumulative time (in ticks) in various power states (Tick)
system.cpu0.thread_0.numInsts                       0                       # Number of Instructions committed (Count)
system.cpu0.thread_0.numOps                         0                       # Number of Ops committed (Count)
system.cpu0.thread_0.numMemRefs                     0                       # Number of Memory References (Count)
system.cpu0.workload.numSyscalls              4194337                       # Number of system calls (Count)
system.cpu1.numCycles                      1359813438                       # Number of cpu cycles simulated (Cycle)
system.cpu1.numWorkItemsStarted                     0                       # Number of work items this cpu started (Count)
system.cpu1.numWorkItemsCompleted                   0                       # Number of work items this cpu completed (Count)
system.cpu1.exec_context.thread_0.numInsts    178066628                       # Number of instructions committed (Count)
system.cpu1.exec_context.thread_0.numOps    180163787                       # Number of ops (including micro ops) committed (Count)
system.cpu1.exec_context.thread_0.numIntAluAccesses    171910442                       # Number of integer alu accesses (Count)
system.cpu1.exec_context.thread_0.numFpAluAccesses           12                       # Number of float alu accesses (Count)
system.cpu1.exec_context.thread_0.numVecAluAccesses            0                       # Number of vector alu accesses (Count)
system.cpu1.exec_context.thread_0.numCallsReturns     20971590                       # Number of times a function call or return occured (Count)
system.cpu1.exec_context.thread_0.numCondCtrlInsts     24054301                       # Number of instructions that are conditional controls (Count)
system.cpu1.exec_context.thread_0.numIntInsts    171910442                       # Number of integer instructions (Count)
system.cpu1.exec_context.thread_0.numFpInsts           12                       # Number of float instructions (Count)
system.cpu1.exec_context.thread_0.numVecInsts            0                       # Number of vector instructions (Count)
system.cpu1.exec_context.thread_0.numIntRegReads    155064959                       # Number of times the integer registers were read (Count)
system.cpu1.exec_context.thread_0.numIntRegWrites    122689985                       # Number of times the integer registers were written (Count)
system.cpu1.exec_context.thread_0.numFpRegReads           12                       # Number of times the floating registers were read (Count)
system.cpu1.exec_context.thread_0.numFpRegWrites            0                       # Number of times the floating registers were written (Count)
system.cpu1.exec_context.thread_0.numVecRegReads            0                       # Number of times the vector registers were read (Count)
system.cpu1.exec_context.thread_0.numVecRegWrites            0                       # Number of times the vector registers were written (Count)
system.cpu1.exec_context.thread_0.numVecPredRegReads            0                       # Number of times the predicate registers were read (Count)
system.cpu1.exec_context.thread_0.numVecPredRegWrites            0                       # Number of times the predicate registers were written (Count)
system.cpu1.exec_context.thread_0.numMiscRegReads      4194341                       # Number of times the Misc registers were read (Count)
system.cpu1.exec_context.thread_0.numMiscRegWrites            7                       # Number of times the Misc registers were written (Count)
system.cpu1.exec_context.thread_0.numMemRefs     46141464                       # Number of memory refs (Count)
system.cpu1.exec_context.thread_0.numLoadInsts     27266799                       # Number of load instructions (Count)
system.cpu1.exec_context.thread_0.numStoreInsts     18874665                       # Number of store instructions (Count)
system.cpu1.exec_context.thread_0.numIdleCycles 874137938.527971                       # Number of idle cycles (Cycle)
system.cpu1.exec_context.thread_0.numBusyCycles 485675499.472029                       # Number of busy cycles (Cycle)
system.cpu1.exec_context.thread_0.notIdleFraction     0.357163                       # Percentage of non-idle cycles (Ratio)
system.cpu1.exec_context.thread_0.idleFraction     0.642837                       # Percentage of idle cycles (Ratio)
system.cpu1.exec_context.thread_0.numBranches     49084924                       # Number of branches fetched (Count)
system.cpu1.exec_context.thread_0.statExecutedInstType::No_OpClass      8388632      4.55%      4.55% # Class of executed instruction. (Count)
system.cpu1.exec_context.thread_0.statExecutedInstType::IntAlu    129827994     70.42%     74.97% # Class of executed instruction. (Count)
system.cpu1.exec_context.thread_0.statExecutedInstType::IntMult            0      0.00%     74.97% # Class of executed instruction. (Count)
system.cpu1.exec_context.thread_0.statExecutedInstType::IntDiv            2      0.00%     74.97% # Class of executed instruction. (Count)
system.cpu1.exec_context.thread_0.statExecutedInstType::FloatAdd            0      0.00%     74.97% # Class of executed instruction. (Count)
system.cpu1.exec_context.thread_0.statExecutedInstType::FloatCmp            0      0.00%     74.97% # Class of executed instruction. (Count)
system.cpu1.exec_context.thread_0.statExecutedInstType::FloatCvt            0      0.00%     74.97% # Class of executed instruction. (Count)
system.cpu1.exec_context.thread_0.statExecutedInstType::FloatMult            0      0.00%     74.97% # Class of executed instruction. (Count)
system.cpu1.exec_context.thread_0.statExecutedInstType::FloatMultAcc            0      0.00%     74.97% # Class of executed instruction. (Count)
system.cpu1.exec_context.thread_0.statExecutedInstType::FloatDiv            0      0.00%     74.97% # Class of executed instruction. (Count)
system.cpu1.exec_context.thread_0.statExecutedInstType::FloatMisc            0      0.00%     74.97% # Class of executed instruction. (Count)
system.cpu1.exec_context.thread_0.statExecutedInstType::FloatSqrt            0      0.00%     74.97% # Class of executed instruction. (Count)
system.cpu1.exec_context.thread_0.statExecutedInstType::SimdAdd            0      0.00%     74.97% # Class of executed instruction. (Count)
system.cpu1.exec_context.thread_0.statExecutedInstType::SimdAddAcc            0      0.00%     74.97% # Class of executed instruction. (Count)
system.cpu1.exec_context.thread_0.statExecutedInstType::SimdAlu            0      0.00%     74.97% # Class of executed instruction. (Count)
system.cpu1.exec_context.thread_0.statExecutedInstType::SimdCmp            0      0.00%     74.97% # Class of executed instruction. (Count)
system.cpu1.exec_context.thread_0.statExecutedInstType::SimdCvt            0      0.00%     74.97% # Class of executed instruction. (Count)
system.cpu1.exec_context.thread_0.statExecutedInstType::SimdMisc            0      0.00%     74.97% # Class of executed instruction. (Count)
system.cpu1.exec_context.thread_0.statExecutedInstType::SimdMult            0      0.00%     74.97% # Class of executed instruction. (Count)
system.cpu1.exec_context.thread_0.statExecutedInstType::SimdMultAcc            0      0.00%     74.97% # Class of executed instruction. (Count)
system.cpu1.exec_context.thread_0.statExecutedInstType::SimdShift            0      0.00%     74.97% # Class of executed instruction. (Count)
system.cpu1.exec_context.thread_0.statExecutedInstType::SimdShiftAcc            0      0.00%     74.97% # Class of executed instruction. (Count)
system.cpu1.exec_context.thread_0.statExecutedInstType::SimdDiv            0      0.00%     74.97% # Class of executed instruction. (Count)
system.cpu1.exec_context.thread_0.statExecutedInstType::SimdSqrt            0      0.00%     74.97% # Class of executed instruction. (Count)
system.cpu1.exec_context.thread_0.statExecutedInstType::SimdFloatAdd            0      0.00%     74.97% # Class of executed instruction. (Count)
system.cpu1.exec_context.thread_0.statExecutedInstType::SimdFloatAlu            0      0.00%     74.97% # Class of executed instruction. (Count)
system.cpu1.exec_context.thread_0.statExecutedInstType::SimdFloatCmp            0      0.00%     74.97% # Class of executed instruction. (Count)
system.cpu1.exec_context.thread_0.statExecutedInstType::SimdFloatCvt            0      0.00%     74.97% # Class of executed instruction. (Count)
system.cpu1.exec_context.thread_0.statExecutedInstType::SimdFloatDiv            0      0.00%     74.97% # Class of executed instruction. (Count)
system.cpu1.exec_context.thread_0.statExecutedInstType::SimdFloatMisc            0      0.00%     74.97% # Class of executed instruction. (Count)
system.cpu1.exec_context.thread_0.statExecutedInstType::SimdFloatMult            0      0.00%     74.97% # Class of executed instruction. (Count)
system.cpu1.exec_context.thread_0.statExecutedInstType::SimdFloatMultAcc            0      0.00%     74.97% # Class of executed instruction. (Count)
system.cpu1.exec_context.thread_0.statExecutedInstType::SimdFloatSqrt            0      0.00%     74.97% # Class of executed instruction. (Count)
system.cpu1.exec_context.thread_0.statExecutedInstType::SimdReduceAdd            0      0.00%     74.97% # Class of executed instruction. (Count)
system.cpu1.exec_context.thread_0.statExecutedInstType::SimdReduceAlu            0      0.00%     74.97% # Class of executed instruction. (Count)
system.cpu1.exec_context.thread_0.statExecutedInstType::SimdReduceCmp            0      0.00%     74.97% # Class of executed instruction. (Count)
system.cpu1.exec_context.thread_0.statExecutedInstType::SimdFloatReduceAdd            0      0.00%     74.97% # Class of executed instruction. (Count)
system.cpu1.exec_context.thread_0.statExecutedInstType::SimdFloatReduceCmp            0      0.00%     74.97% # Class of executed instruction. (Count)
system.cpu1.exec_context.thread_0.statExecutedInstType::SimdAes            0      0.00%     74.97% # Class of executed instruction. (Count)
system.cpu1.exec_context.thread_0.statExecutedInstType::SimdAesMix            0      0.00%     74.97% # Class of executed instruction. (Count)
system.cpu1.exec_context.thread_0.statExecutedInstType::SimdSha1Hash            0      0.00%     74.97% # Class of executed instruction. (Count)
system.cpu1.exec_context.thread_0.statExecutedInstType::SimdSha1Hash2            0      0.00%     74.97% # Class of executed instruction. (Count)
system.cpu1.exec_context.thread_0.statExecutedInstType::SimdSha256Hash            0      0.00%     74.97% # Class of executed instruction. (Count)
system.cpu1.exec_context.thread_0.statExecutedInstType::SimdSha256Hash2            0      0.00%     74.97% # Class of executed instruction. (Count)
system.cpu1.exec_context.thread_0.statExecutedInstType::SimdShaSigma2            0      0.00%     74.97% # Class of executed instruction. (Count)
system.cpu1.exec_context.thread_0.statExecutedInstType::SimdShaSigma3            0      0.00%     74.97% # Class of executed instruction. (Count)
system.cpu1.exec_context.thread_0.statExecutedInstType::SimdPredAlu            0      0.00%     74.97% # Class of executed instruction. (Count)
system.cpu1.exec_context.thread_0.statExecutedInstType::MemRead     31461110     17.07%     92.04% # Class of executed instruction. (Count)
system.cpu1.exec_context.thread_0.statExecutedInstType::MemWrite     14680342      7.96%    100.00% # Class of executed instruction. (Count)
system.cpu1.exec_context.thread_0.statExecutedInstType::FloatMemRead            0      0.00%    100.00% # Class of executed instruction. (Count)
system.cpu1.exec_context.thread_0.statExecutedInstType::FloatMemWrite           12      0.00%    100.00% # Class of executed instruction. (Count)
system.cpu1.exec_context.thread_0.statExecutedInstType::IprAccess            0      0.00%    100.00% # Class of executed instruction. (Count)
system.cpu1.exec_context.thread_0.statExecutedInstType::InstPrefetch            0      0.00%    100.00% # Class of executed instruction. (Count)
system.cpu1.exec_context.thread_0.statExecutedInstType::total    184358092                       # Class of executed instruction. (Count)
system.cpu1.mmu.dtb.readHits                        0                       # read hits (Count)
system.cpu1.mmu.dtb.readMisses                      0                       # read misses (Count)
system.cpu1.mmu.dtb.readAccesses                    0                       # read accesses (Count)
system.cpu1.mmu.dtb.writeHits                       0                       # write hits (Count)
system.cpu1.mmu.dtb.writeMisses                     0                       # write misses (Count)
system.cpu1.mmu.dtb.writeAccesses                   0                       # write accesses (Count)
system.cpu1.mmu.dtb.hits                            0                       # Total TLB (read and write) hits (Count)
system.cpu1.mmu.dtb.misses                          0                       # Total TLB (read and write) misses (Count)
system.cpu1.mmu.dtb.accesses                        0                       # Total TLB (read and write) accesses (Count)
system.cpu1.mmu.dtb.walker.power_state.pwrStateResidencyTicks::UNDEFINED 1359825252000                       # Cumulative time (in ticks) in various power states (Tick)
system.cpu1.mmu.itb.readHits                        0                       # read hits (Count)
system.cpu1.mmu.itb.readMisses                      0                       # read misses (Count)
system.cpu1.mmu.itb.readAccesses                    0                       # read accesses (Count)
system.cpu1.mmu.itb.writeHits                       0                       # write hits (Count)
system.cpu1.mmu.itb.writeMisses                     0                       # write misses (Count)
system.cpu1.mmu.itb.writeAccesses                   0                       # write accesses (Count)
system.cpu1.mmu.itb.hits                            0                       # Total TLB (read and write) hits (Count)
system.cpu1.mmu.itb.misses                          0                       # Total TLB (read and write) misses (Count)
system.cpu1.mmu.itb.accesses                        0                       # Total TLB (read and write) accesses (Count)
system.cpu1.mmu.itb.walker.power_state.pwrStateResidencyTicks::UNDEFINED 1359825252000                       # Cumulative time (in ticks) in various power states (Tick)
system.cpu1.power_state.numTransitions        4194300                       # Number of power state transitions (Count)
system.cpu1.power_state.ticksClkGated::samples      2097150                       # Distribution of time spent in the clock gated state (Tick)
system.cpu1.power_state.ticksClkGated::mean 416738.534201                       # Distribution of time spent in the clock gated state (Tick)
system.cpu1.power_state.ticksClkGated::stdev 30302.355592                       # Distribution of time spent in the clock gated state (Tick)
system.cpu1.power_state.ticksClkGated::1000-5e+10      2097150    100.00%    100.00% # Distribution of time spent in the clock gated state (Tick)
system.cpu1.power_state.ticksClkGated::min_value        67000                       # Distribution of time spent in the clock gated state (Tick)
system.cpu1.power_state.ticksClkGated::max_value      1664000                       # Distribution of time spent in the clock gated state (Tick)
system.cpu1.power_state.ticksClkGated::total      2097150                       # Distribution of time spent in the clock gated state (Tick)
system.cpu1.power_state.pwrStateResidencyTicks::ON 485862035000                       # Cumulative time (in ticks) in various power states (Tick)
system.cpu1.power_state.pwrStateResidencyTicks::CLK_GATED 873963217000                       # Cumulative time (in ticks) in various power states (Tick)
system.cpu1.thread_0.numInsts                       0                       # Number of Instructions committed (Count)
system.cpu1.thread_0.numOps                         0                       # Number of Ops committed (Count)
system.cpu1.thread_0.numMemRefs                     0                       # Number of Memory References (Count)
system.cpu2.numCycles                      1359813244                       # Number of cpu cycles simulated (Cycle)
system.cpu2.numWorkItemsStarted                     0                       # Number of work items this cpu started (Count)
system.cpu2.numWorkItemsCompleted                   0                       # Number of work items this cpu completed (Count)
system.cpu2.exec_context.thread_0.numInsts    178066304                       # Number of instructions committed (Count)
system.cpu2.exec_context.thread_0.numOps    180163463                       # Number of ops (including micro ops) committed (Count)
system.cpu2.exec_context.thread_0.numIntAluAccesses    171910139                       # Number of integer alu accesses (Count)
system.cpu2.exec_context.thread_0.numFpAluAccesses           12                       # Number of float alu accesses (Count)
system.cpu2.exec_context.thread_0.numVecAluAccesses            0                       # Number of vector alu accesses (Count)
system.cpu2.exec_context.thread_0.numCallsReturns     20971537                       # Number of times a function call or return occured (Count)
system.cpu2.exec_context.thread_0.numCondCtrlInsts     24054315                       # Number of instructions that are conditional controls (Count)
system.cpu2.exec_context.thread_0.numIntInsts    171910139                       # Number of integer instructions (Count)
system.cpu2.exec_context.thread_0.numFpInsts           12                       # Number of float instructions (Count)
system.cpu2.exec_context.thread_0.numVecInsts            0                       # Number of vector instructions (Count)
system.cpu2.exec_context.thread_0.numIntRegReads    155064765                       # Number of times the integer registers were read (Count)
system.cpu2.exec_context.thread_0.numIntRegWrites    122689710                       # Number of times the integer registers were written (Count)
system.cpu2.exec_context.thread_0.numFpRegReads           12                       # Number of times the floating registers were read (Count)
system.cpu2.exec_context.thread_0.numFpRegWrites            0                       # Number of times the floating registers were written (Count)
system.cpu2.exec_context.thread_0.numVecRegReads            0                       # Number of times the vector registers were read (Count)
system.cpu2.exec_context.thread_0.numVecRegWrites            0                       # Number of times the vector registers were written (Count)
system.cpu2.exec_context.thread_0.numVecPredRegReads            0                       # Number of times the predicate registers were read (Count)
system.cpu2.exec_context.thread_0.numVecPredRegWrites            0                       # Number of times the predicate registers were written (Count)
system.cpu2.exec_context.thread_0.numMiscRegReads      4194321                       # Number of times the Misc registers were read (Count)
system.cpu2.exec_context.thread_0.numMiscRegWrites            7                       # Number of times the Misc registers were written (Count)
system.cpu2.exec_context.thread_0.numMemRefs     46141455                       # Number of memory refs (Count)
system.cpu2.exec_context.thread_0.numLoadInsts     27266807                       # Number of load instructions (Count)
system.cpu2.exec_context.thread_0.numStoreInsts     18874648                       # Number of store instructions (Count)
system.cpu2.exec_context.thread_0.numIdleCycles 869942529.864637                       # Number of idle cycles (Cycle)
system.cpu2.exec_context.thread_0.numBusyCycles 489870714.135363                       # Number of busy cycles (Cycle)
system.cpu2.exec_context.thread_0.notIdleFraction     0.360249                       # Percentage of non-idle cycles (Ratio)
system.cpu2.exec_context.thread_0.idleFraction     0.639751                       # Percentage of idle cycles (Ratio)
system.cpu2.exec_context.thread_0.numBranches     49084864                       # Number of branches fetched (Count)
system.cpu2.exec_context.thread_0.statExecutedInstType::No_OpClass      8388611      4.55%      4.55% # Class of executed instruction. (Count)
system.cpu2.exec_context.thread_0.statExecutedInstType::IntAlu    129827676     70.42%     74.97% # Class of executed instruction. (Count)
system.cpu2.exec_context.thread_0.statExecutedInstType::IntMult            0      0.00%     74.97% # Class of executed instruction. (Count)
system.cpu2.exec_context.thread_0.statExecutedInstType::IntDiv            2      0.00%     74.97% # Class of executed instruction. (Count)
system.cpu2.exec_context.thread_0.statExecutedInstType::FloatAdd            0      0.00%     74.97% # Class of executed instruction. (Count)
system.cpu2.exec_context.thread_0.statExecutedInstType::FloatCmp            0      0.00%     74.97% # Class of executed instruction. (Count)
system.cpu2.exec_context.thread_0.statExecutedInstType::FloatCvt            0      0.00%     74.97% # Class of executed instruction. (Count)
system.cpu2.exec_context.thread_0.statExecutedInstType::FloatMult            0      0.00%     74.97% # Class of executed instruction. (Count)
system.cpu2.exec_context.thread_0.statExecutedInstType::FloatMultAcc            0      0.00%     74.97% # Class of executed instruction. (Count)
system.cpu2.exec_context.thread_0.statExecutedInstType::FloatDiv            0      0.00%     74.97% # Class of executed instruction. (Count)
system.cpu2.exec_context.thread_0.statExecutedInstType::FloatMisc            0      0.00%     74.97% # Class of executed instruction. (Count)
system.cpu2.exec_context.thread_0.statExecutedInstType::FloatSqrt            0      0.00%     74.97% # Class of executed instruction. (Count)
system.cpu2.exec_context.thread_0.statExecutedInstType::SimdAdd            0      0.00%     74.97% # Class of executed instruction. (Count)
system.cpu2.exec_context.thread_0.statExecutedInstType::SimdAddAcc            0      0.00%     74.97% # Class of executed instruction. (Count)
system.cpu2.exec_context.thread_0.statExecutedInstType::SimdAlu            0      0.00%     74.97% # Class of executed instruction. (Count)
system.cpu2.exec_context.thread_0.statExecutedInstType::SimdCmp            0      0.00%     74.97% # Class of executed instruction. (Count)
system.cpu2.exec_context.thread_0.statExecutedInstType::SimdCvt            0      0.00%     74.97% # Class of executed instruction. (Count)
system.cpu2.exec_context.thread_0.statExecutedInstType::SimdMisc            0      0.00%     74.97% # Class of executed instruction. (Count)
system.cpu2.exec_context.thread_0.statExecutedInstType::SimdMult            0      0.00%     74.97% # Class of executed instruction. (Count)
system.cpu2.exec_context.thread_0.statExecutedInstType::SimdMultAcc            0      0.00%     74.97% # Class of executed instruction. (Count)
system.cpu2.exec_context.thread_0.statExecutedInstType::SimdShift            0      0.00%     74.97% # Class of executed instruction. (Count)
system.cpu2.exec_context.thread_0.statExecutedInstType::SimdShiftAcc            0      0.00%     74.97% # Class of executed instruction. (Count)
system.cpu2.exec_context.thread_0.statExecutedInstType::SimdDiv            0      0.00%     74.97% # Class of executed instruction. (Count)
system.cpu2.exec_context.thread_0.statExecutedInstType::SimdSqrt            0      0.00%     74.97% # Class of executed instruction. (Count)
system.cpu2.exec_context.thread_0.statExecutedInstType::SimdFloatAdd            0      0.00%     74.97% # Class of executed instruction. (Count)
system.cpu2.exec_context.thread_0.statExecutedInstType::SimdFloatAlu            0      0.00%     74.97% # Class of executed instruction. (Count)
system.cpu2.exec_context.thread_0.statExecutedInstType::SimdFloatCmp            0      0.00%     74.97% # Class of executed instruction. (Count)
system.cpu2.exec_context.thread_0.statExecutedInstType::SimdFloatCvt            0      0.00%     74.97% # Class of executed instruction. (Count)
system.cpu2.exec_context.thread_0.statExecutedInstType::SimdFloatDiv            0      0.00%     74.97% # Class of executed instruction. (Count)
system.cpu2.exec_context.thread_0.statExecutedInstType::SimdFloatMisc            0      0.00%     74.97% # Class of executed instruction. (Count)
system.cpu2.exec_context.thread_0.statExecutedInstType::SimdFloatMult            0      0.00%     74.97% # Class of executed instruction. (Count)
system.cpu2.exec_context.thread_0.statExecutedInstType::SimdFloatMultAcc            0      0.00%     74.97% # Class of executed instruction. (Count)
system.cpu2.exec_context.thread_0.statExecutedInstType::SimdFloatSqrt            0      0.00%     74.97% # Class of executed instruction. (Count)
system.cpu2.exec_context.thread_0.statExecutedInstType::SimdReduceAdd            0      0.00%     74.97% # Class of executed instruction. (Count)
system.cpu2.exec_context.thread_0.statExecutedInstType::SimdReduceAlu            0      0.00%     74.97% # Class of executed instruction. (Count)
system.cpu2.exec_context.thread_0.statExecutedInstType::SimdReduceCmp            0      0.00%     74.97% # Class of executed instruction. (Count)
system.cpu2.exec_context.thread_0.statExecutedInstType::SimdFloatReduceAdd            0      0.00%     74.97% # Class of executed instruction. (Count)
system.cpu2.exec_context.thread_0.statExecutedInstType::SimdFloatReduceCmp            0      0.00%     74.97% # Class of executed instruction. (Count)
system.cpu2.exec_context.thread_0.statExecutedInstType::SimdAes            0      0.00%     74.97% # Class of executed instruction. (Count)
system.cpu2.exec_context.thread_0.statExecutedInstType::SimdAesMix            0      0.00%     74.97% # Class of executed instruction. (Count)
system.cpu2.exec_context.thread_0.statExecutedInstType::SimdSha1Hash            0      0.00%     74.97% # Class of executed instruction. (Count)
system.cpu2.exec_context.thread_0.statExecutedInstType::SimdSha1Hash2            0      0.00%     74.97% # Class of executed instruction. (Count)
system.cpu2.exec_context.thread_0.statExecutedInstType::SimdSha256Hash            0      0.00%     74.97% # Class of executed instruction. (Count)
system.cpu2.exec_context.thread_0.statExecutedInstType::SimdSha256Hash2            0      0.00%     74.97% # Class of executed instruction. (Count)
system.cpu2.exec_context.thread_0.statExecutedInstType::SimdShaSigma2            0      0.00%     74.97% # Class of executed instruction. (Count)
system.cpu2.exec_context.thread_0.statExecutedInstType::SimdShaSigma3            0      0.00%     74.97% # Class of executed instruction. (Count)
system.cpu2.exec_context.thread_0.statExecutedInstType::SimdPredAlu            0      0.00%     74.97% # Class of executed instruction. (Count)
system.cpu2.exec_context.thread_0.statExecutedInstType::MemRead     31461105     17.07%     92.04% # Class of executed instruction. (Count)
system.cpu2.exec_context.thread_0.statExecutedInstType::MemWrite     14680338      7.96%    100.00% # Class of executed instruction. (Count)
system.cpu2.exec_context.thread_0.statExecutedInstType::FloatMemRead            0      0.00%    100.00% # Class of executed instruction. (Count)
system.cpu2.exec_context.thread_0.statExecutedInstType::FloatMemWrite           12      0.00%    100.00% # Class of executed instruction. (Count)
system.cpu2.exec_context.thread_0.statExecutedInstType::IprAccess            0      0.00%    100.00% # Class of executed instruction. (Count)
system.cpu2.exec_context.thread_0.statExecutedInstType::InstPrefetch            0      0.00%    100.00% # Class of executed instruction. (Count)
system.cpu2.exec_context.thread_0.statExecutedInstType::total    184357744                       # Class of executed instruction. (Count)
system.cpu2.mmu.dtb.readHits                        0                       # read hits (Count)
system.cpu2.mmu.dtb.readMisses                      0                       # read misses (Count)
system.cpu2.mmu.dtb.readAccesses                    0                       # read accesses (Count)
system.cpu2.mmu.dtb.writeHits                       0                       # write hits (Count)
system.cpu2.mmu.dtb.writeMisses                     0                       # write misses (Count)
system.cpu2.mmu.dtb.writeAccesses                   0                       # write accesses (Count)
system.cpu2.mmu.dtb.hits                            0                       # Total TLB (read and write) hits (Count)
system.cpu2.mmu.dtb.misses                          0                       # Total TLB (read and write) misses (Count)
system.cpu2.mmu.dtb.accesses                        0                       # Total TLB (read and write) accesses (Count)
system.cpu2.mmu.dtb.walker.power_state.pwrStateResidencyTicks::UNDEFINED 1359825252000                       # Cumulative time (in ticks) in various power states (Tick)
system.cpu2.mmu.itb.readHits                        0                       # read hits (Count)
system.cpu2.mmu.itb.readMisses                      0                       # read misses (Count)
system.cpu2.mmu.itb.readAccesses                    0                       # read accesses (Count)
system.cpu2.mmu.itb.writeHits                       0                       # write hits (Count)
system.cpu2.mmu.itb.writeMisses                     0                       # write misses (Count)
system.cpu2.mmu.itb.writeAccesses                   0                       # write accesses (Count)
system.cpu2.mmu.itb.hits                            0                       # Total TLB (read and write) hits (Count)
system.cpu2.mmu.itb.misses                          0                       # Total TLB (read and write) misses (Count)
system.cpu2.mmu.itb.accesses                        0                       # Total TLB (read and write) accesses (Count)
system.cpu2.mmu.itb.walker.power_state.pwrStateResidencyTicks::UNDEFINED 1359825252000                       # Cumulative time (in ticks) in various power states (Tick)
system.cpu2.power_state.numTransitions        4194274                       # Number of power state transitions (Count)
system.cpu2.power_state.ticksClkGated::samples      2097137                       # Distribution of time spent in the clock gated state (Tick)
system.cpu2.power_state.ticksClkGated::mean 414738.614120                       # Distribution of time spent in the clock gated state (Tick)
system.cpu2.power_state.ticksClkGated::stdev 30287.994720                       # Distribution of time spent in the clock gated state (Tick)
system.cpu2.power_state.ticksClkGated::1000-5e+10      2097137    100.00%    100.00% # Distribution of time spent in the clock gated state (Tick)
system.cpu2.power_state.ticksClkGated::min_value        62000                       # Distribution of time spent in the clock gated state (Tick)
system.cpu2.power_state.ticksClkGated::max_value       461000                       # Distribution of time spent in the clock gated state (Tick)
system.cpu2.power_state.ticksClkGated::total      2097137                       # Distribution of time spent in the clock gated state (Tick)
system.cpu2.power_state.pwrStateResidencyTicks::ON 490061559000                       # Cumulative time (in ticks) in various power states (Tick)
system.cpu2.power_state.pwrStateResidencyTicks::CLK_GATED 869763693000                       # Cumulative time (in ticks) in various power states (Tick)
system.cpu2.thread_0.numInsts                       0                       # Number of Instructions committed (Count)
system.cpu2.thread_0.numOps                         0                       # Number of Ops committed (Count)
system.cpu2.thread_0.numMemRefs                     0                       # Number of Memory References (Count)
system.cpu3.numCycles                      1359813244                       # Number of cpu cycles simulated (Cycle)
system.cpu3.numWorkItemsStarted                     0                       # Number of work items this cpu started (Count)
system.cpu3.numWorkItemsCompleted                   0                       # Number of work items this cpu completed (Count)
system.cpu3.exec_context.thread_0.numInsts    178061003                       # Number of instructions committed (Count)
system.cpu3.exec_context.thread_0.numOps    180158163                       # Number of ops (including micro ops) committed (Count)
system.cpu3.exec_context.thread_0.numIntAluAccesses    171904816                       # Number of integer alu accesses (Count)
system.cpu3.exec_context.thread_0.numFpAluAccesses           12                       # Number of float alu accesses (Count)
system.cpu3.exec_context.thread_0.numVecAluAccesses            0                       # Number of vector alu accesses (Count)
system.cpu3.exec_context.thread_0.numCallsReturns     20971604                       # Number of times a function call or return occured (Count)
system.cpu3.exec_context.thread_0.numCondCtrlInsts     24051456                       # Number of instructions that are conditional controls (Count)
system.cpu3.exec_context.thread_0.numIntInsts    171904816                       # Number of integer instructions (Count)
system.cpu3.exec_context.thread_0.numFpInsts           12                       # Number of float instructions (Count)
system.cpu3.exec_context.thread_0.numVecInsts            0                       # Number of vector instructions (Count)
system.cpu3.exec_context.thread_0.numIntRegReads    155059276                       # Number of times the integer registers were read (Count)
system.cpu3.exec_context.thread_0.numIntRegWrites    122687204                       # Number of times the integer registers were written (Count)
system.cpu3.exec_context.thread_0.numFpRegReads           12                       # Number of times the floating registers were read (Count)
system.cpu3.exec_context.thread_0.numFpRegWrites            0                       # Number of times the floating registers were written (Count)
system.cpu3.exec_context.thread_0.numVecRegReads            0                       # Number of times the vector registers were read (Count)
system.cpu3.exec_context.thread_0.numVecRegWrites            0                       # Number of times the vector registers were written (Count)
system.cpu3.exec_context.thread_0.numVecPredRegReads            0                       # Number of times the predicate registers were read (Count)
system.cpu3.exec_context.thread_0.numVecPredRegWrites            0                       # Number of times the predicate registers were written (Count)
system.cpu3.exec_context.thread_0.numMiscRegReads      4194348                       # Number of times the Misc registers were read (Count)
system.cpu3.exec_context.thread_0.numMiscRegWrites            7                       # Number of times the Misc registers were written (Count)
system.cpu3.exec_context.thread_0.numMemRefs     46138612                       # Number of memory refs (Count)
system.cpu3.exec_context.thread_0.numLoadInsts     27263953                       # Number of load instructions (Count)
system.cpu3.exec_context.thread_0.numStoreInsts     18874659                       # Number of store instructions (Count)
system.cpu3.exec_context.thread_0.numIdleCycles 874145707.747949                       # Number of idle cycles (Cycle)
system.cpu3.exec_context.thread_0.numBusyCycles 485667536.252051                       # Number of busy cycles (Cycle)
system.cpu3.exec_context.thread_0.notIdleFraction     0.357158                       # Percentage of non-idle cycles (Ratio)
system.cpu3.exec_context.thread_0.idleFraction     0.642842                       # Percentage of idle cycles (Ratio)
system.cpu3.exec_context.thread_0.numBranches     49082094                       # Number of branches fetched (Count)
system.cpu3.exec_context.thread_0.statExecutedInstType::No_OpClass      8388640      4.55%      4.55% # Class of executed instruction. (Count)
system.cpu3.exec_context.thread_0.statExecutedInstType::IntAlu    129825221     70.42%     74.97% # Class of executed instruction. (Count)
system.cpu3.exec_context.thread_0.statExecutedInstType::IntMult            0      0.00%     74.97% # Class of executed instruction. (Count)
system.cpu3.exec_context.thread_0.statExecutedInstType::IntDiv            2      0.00%     74.97% # Class of executed instruction. (Count)
system.cpu3.exec_context.thread_0.statExecutedInstType::FloatAdd            0      0.00%     74.97% # Class of executed instruction. (Count)
system.cpu3.exec_context.thread_0.statExecutedInstType::FloatCmp            0      0.00%     74.97% # Class of executed instruction. (Count)
system.cpu3.exec_context.thread_0.statExecutedInstType::FloatCvt            0      0.00%     74.97% # Class of executed instruction. (Count)
system.cpu3.exec_context.thread_0.statExecutedInstType::FloatMult            0      0.00%     74.97% # Class of executed instruction. (Count)
system.cpu3.exec_context.thread_0.statExecutedInstType::FloatMultAcc            0      0.00%     74.97% # Class of executed instruction. (Count)
system.cpu3.exec_context.thread_0.statExecutedInstType::FloatDiv            0      0.00%     74.97% # Class of executed instruction. (Count)
system.cpu3.exec_context.thread_0.statExecutedInstType::FloatMisc            0      0.00%     74.97% # Class of executed instruction. (Count)
system.cpu3.exec_context.thread_0.statExecutedInstType::FloatSqrt            0      0.00%     74.97% # Class of executed instruction. (Count)
system.cpu3.exec_context.thread_0.statExecutedInstType::SimdAdd            0      0.00%     74.97% # Class of executed instruction. (Count)
system.cpu3.exec_context.thread_0.statExecutedInstType::SimdAddAcc            0      0.00%     74.97% # Class of executed instruction. (Count)
system.cpu3.exec_context.thread_0.statExecutedInstType::SimdAlu            0      0.00%     74.97% # Class of executed instruction. (Count)
system.cpu3.exec_context.thread_0.statExecutedInstType::SimdCmp            0      0.00%     74.97% # Class of executed instruction. (Count)
system.cpu3.exec_context.thread_0.statExecutedInstType::SimdCvt            0      0.00%     74.97% # Class of executed instruction. (Count)
system.cpu3.exec_context.thread_0.statExecutedInstType::SimdMisc            0      0.00%     74.97% # Class of executed instruction. (Count)
system.cpu3.exec_context.thread_0.statExecutedInstType::SimdMult            0      0.00%     74.97% # Class of executed instruction. (Count)
system.cpu3.exec_context.thread_0.statExecutedInstType::SimdMultAcc            0      0.00%     74.97% # Class of executed instruction. (Count)
system.cpu3.exec_context.thread_0.statExecutedInstType::SimdShift            0      0.00%     74.97% # Class of executed instruction. (Count)
system.cpu3.exec_context.thread_0.statExecutedInstType::SimdShiftAcc            0      0.00%     74.97% # Class of executed instruction. (Count)
system.cpu3.exec_context.thread_0.statExecutedInstType::SimdDiv            0      0.00%     74.97% # Class of executed instruction. (Count)
system.cpu3.exec_context.thread_0.statExecutedInstType::SimdSqrt            0      0.00%     74.97% # Class of executed instruction. (Count)
system.cpu3.exec_context.thread_0.statExecutedInstType::SimdFloatAdd            0      0.00%     74.97% # Class of executed instruction. (Count)
[...]
system.ruby.network.routers8.port_buffers2.m_msg_count     55474779                       # Number of messages passed the buffer (Count)
system.ruby.network.routers8.port_buffers2.m_buf_msgs     0.020398                       # Average number of messages in buffer ((Count/Tick))
system.ruby.network.routers8.port_buffers3.m_msg_count         1446                       # Number of messages passed the buffer (Count)
system.ruby.network.routers8.port_buffers3.m_buf_msgs     0.000001                       # Average number of messages in buffer ((Count/Tick))
system.ruby.network.routers8.port_buffers3.m_stall_time         5000                       # Total number of ticks messages were stalled in this buffer (Tick)
system.ruby.network.routers8.port_buffers3.m_avg_stall_time     3.457815                       # Average stall ticks per message ((Tick/Count))
system.ruby.network.routers8.port_buffers4.m_msg_count     24626927                       # Number of messages passed the buffer (Count)
system.ruby.network.routers8.port_buffers4.m_buf_msgs     0.009055                       # Average number of messages in buffer ((Count/Tick))
system.ruby.network.routers8.port_buffers4.m_stall_time        19500                       # Total number of ticks messages were stalled in this buffer (Tick)
system.ruby.network.routers8.port_buffers4.m_avg_stall_time     0.000792                       # Average stall ticks per message ((Tick/Count))
system.ruby.network.routers8.port_buffers5.m_msg_count     55473243                       # Number of messages passed the buffer (Count)
system.ruby.network.routers8.port_buffers5.m_buf_msgs     0.020397                       # Average number of messages in buffer ((Count/Tick))
system.ruby.network.routers8.port_buffers5.m_stall_time          500                       # Total number of ticks messages were stalled in this buffer (Tick)
system.ruby.network.routers8.port_buffers5.m_avg_stall_time     0.000009                       # Average stall ticks per message ((Tick/Count))
system.ruby.network.routers8.power_state.pwrStateResidencyTicks::UNDEFINED 1359825252000                       # Cumulative time (in ticks) in various power states (Tick)
system.ruby.network.routers8.throttle00.acc_link_utilization    161964031                       # Accumulated link utilization (Count)
system.ruby.network.routers8.throttle00.link_utilization     5.955325                       # Average link utilization (Ratio)
system.ruby.network.routers8.throttle00.total_msg_count    135576566                       # Total number of messages forwarded by this switch (Count)
system.ruby.network.routers8.throttle00.total_msg_bytes   2591424496                       # Total number of bytes forwarded by this switch (Byte)
system.ruby.network.routers8.throttle00.total_data_msg_bytes   1506811968                       # Total number of data bytes forwarded by this switch (Byte)
system.ruby.network.routers8.throttle00.total_msg_wait_time            0                       # Total time spend forwarding messages (Tick)
system.ruby.network.routers8.throttle00.total_stall_cy            0                       # Total time spent blocked on any output link (Cycle)
system.ruby.network.routers8.throttle00.total_bw_sat_cy     94175761                       # Total time bandwidth was saturated on any output link (Cycle)
system.ruby.network.routers8.throttle00.avg_msg_wait_time            0                       # Average time a message took to be forwarded (Ratio)
system.ruby.network.routers8.throttle00.avg_bandwidth         1.77                       # Average bandwidth (GB/s) (Ratio)
system.ruby.network.routers8.throttle00.avg_useful_bandwidth         1.03                       # Average usefull (only data) bandwidth (GB/s) (Ratio)
system.ruby.network.routers8.throttle00.msg_count.Control::0     56557435                       (Unspecified)
system.ruby.network.routers8.throttle00.msg_bytes.Control::0    452459480                       (Unspecified)
system.ruby.network.routers8.throttle00.msg_count.Response_Data::1     23543824                       (Unspecified)
system.ruby.network.routers8.throttle00.msg_bytes.Response_Data::1   1695155328                       (Unspecified)
system.ruby.network.routers8.throttle00.msg_count.Response_Control::2     55474779                       (Unspecified)
system.ruby.network.routers8.throttle00.msg_bytes.Response_Control::2    443798232                       (Unspecified)
system.ruby.network.routers8.throttle00.msg_count.Writeback_Data::0          113                       (Unspecified)
system.ruby.network.routers8.throttle00.msg_bytes.Writeback_Data::0         8136                       (Unspecified)
system.ruby.network.routers8.throttle00.msg_count.Writeback_Control::0          415                       (Unspecified)
system.ruby.network.routers8.throttle00.msg_bytes.Writeback_Control::0         3320                       (Unspecified)
system.ruby.network.routers8.throttle01.acc_link_utilization     44387576                       # Accumulated link utilization (Count)
system.ruby.network.routers8.throttle01.link_utilization     1.632106                       # Average link utilization (Ratio)
system.ruby.network.routers8.throttle01.total_msg_count     80101616                       # Total number of messages forwarded by this switch (Count)
system.ruby.network.routers8.throttle01.total_msg_bytes    710201216                       # Total number of bytes forwarded by this switch (Byte)
system.ruby.network.routers8.throttle01.total_data_msg_bytes     69388288                       # Total number of data bytes forwarded by this switch (Byte)
system.ruby.network.routers8.throttle01.total_msg_wait_time        25000                       # Total time spend forwarding messages (Tick)
system.ruby.network.routers8.throttle01.total_stall_cy            0                       # Total time spent blocked on any output link (Cycle)
system.ruby.network.routers8.throttle01.total_bw_sat_cy      4336777                       # Total time bandwidth was saturated on any output link (Cycle)
system.ruby.network.routers8.throttle01.avg_msg_wait_time     0.000312                       # Average time a message took to be forwarded (Ratio)
system.ruby.network.routers8.throttle01.avg_bandwidth         0.49                       # Average bandwidth (GB/s) (Ratio)
system.ruby.network.routers8.throttle01.avg_useful_bandwidth         0.05                       # Average usefull (only data) bandwidth (GB/s) (Ratio)
system.ruby.network.routers8.throttle01.msg_count.Control::0         1446                       (Unspecified)
system.ruby.network.routers8.throttle01.msg_bytes.Control::0        11568                       (Unspecified)
system.ruby.network.routers8.throttle01.msg_count.Request_Control::2     55473243                       (Unspecified)
system.ruby.network.routers8.throttle01.msg_bytes.Request_Control::2    443785944                       (Unspecified)
system.ruby.network.routers8.throttle01.msg_count.Response_Data::1      1084192                       (Unspecified)
system.ruby.network.routers8.throttle01.msg_bytes.Response_Data::1     78061824                       (Unspecified)
system.ruby.network.routers8.throttle01.msg_count.Response_Control::1     23542735                       (Unspecified)
system.ruby.network.routers8.throttle01.msg_bytes.Response_Control::1    188341880                       (Unspecified)
system.ruby.network.routers9.percent_links_utilized     0.000133                       (Unspecified)
system.ruby.network.routers9.msg_count.Control::0         1446                       (Unspecified)
system.ruby.network.routers9.msg_bytes.Control::0        11568                       (Unspecified)
system.ruby.network.routers9.msg_count.Response_Data::1         1446                       (Unspecified)
system.ruby.network.routers9.msg_bytes.Response_Data::1       104112                       (Unspecified)
system.ruby.network.routers9.port_buffers0.m_msg_count         1446                       # Number of messages passed the buffer (Count)
system.ruby.network.routers9.port_buffers0.m_buf_msgs     0.000001                       # Average number of messages in buffer ((Count/Tick))
system.ruby.network.routers9.port_buffers4.m_msg_count         1446                       # Number of messages passed the buffer (Count)
system.ruby.network.routers9.port_buffers4.m_buf_msgs     0.000001                       # Average number of messages in buffer ((Count/Tick))
system.ruby.network.routers9.power_state.pwrStateResidencyTicks::UNDEFINED 1359825252000                       # Cumulative time (in ticks) in various power states (Tick)
system.ruby.network.routers9.throttle00.acc_link_utilization          723                       # Accumulated link utilization (Count)
system.ruby.network.routers9.throttle00.link_utilization     0.000027                       # Average link utilization (Ratio)
system.ruby.network.routers9.throttle00.total_msg_count         1446                       # Total number of messages forwarded by this switch (Count)
system.ruby.network.routers9.throttle00.total_msg_bytes        11568                       # Total number of bytes forwarded by this switch (Byte)
system.ruby.network.routers9.throttle00.total_data_msg_bytes            0                       # Total number of data bytes forwarded by this switch (Byte)
system.ruby.network.routers9.throttle00.total_msg_wait_time            0                       # Total time spend forwarding messages (Tick)
system.ruby.network.routers9.throttle00.total_stall_cy            0                       # Total time spent blocked on any output link (Cycle)
system.ruby.network.routers9.throttle00.total_bw_sat_cy            0                       # Total time bandwidth was saturated on any output link (Cycle)
system.ruby.network.routers9.throttle00.avg_msg_wait_time            0                       # Average time a message took to be forwarded (Ratio)
system.ruby.network.routers9.throttle00.avg_bandwidth         0.00                       # Average bandwidth (GB/s) (Ratio)
system.ruby.network.routers9.throttle00.avg_useful_bandwidth         0.00                       # Average usefull (only data) bandwidth (GB/s) (Ratio)
system.ruby.network.routers9.throttle00.msg_count.Control::0         1446                       (Unspecified)
system.ruby.network.routers9.throttle00.msg_bytes.Control::0        11568                       (Unspecified)
system.ruby.network.routers9.throttle01.acc_link_utilization         6507                       # Accumulated link utilization (Count)
system.ruby.network.routers9.throttle01.link_utilization     0.000239                       # Average link utilization (Ratio)
system.ruby.network.routers9.throttle01.total_msg_count         1446                       # Total number of messages forwarded by this switch (Count)
system.ruby.network.routers9.throttle01.total_msg_bytes       104112                       # Total number of bytes forwarded by this switch (Byte)
system.ruby.network.routers9.throttle01.total_data_msg_bytes        92544                       # Total number of data bytes forwarded by this switch (Byte)
system.ruby.network.routers9.throttle01.total_msg_wait_time            0                       # Total time spend forwarding messages (Tick)
system.ruby.network.routers9.throttle01.total_stall_cy            0                       # Total time spent blocked on any output link (Cycle)
system.ruby.network.routers9.throttle01.total_bw_sat_cy         5784                       # Total time bandwidth was saturated on any output link (Cycle)
system.ruby.network.routers9.throttle01.avg_msg_wait_time            0                       # Average time a message took to be forwarded (Ratio)
system.ruby.network.routers9.throttle01.avg_bandwidth         0.00                       # Average bandwidth (GB/s) (Ratio)
system.ruby.network.routers9.throttle01.avg_useful_bandwidth         0.00                       # Average usefull (only data) bandwidth (GB/s) (Ratio)
system.ruby.network.routers9.throttle01.msg_count.Response_Data::1         1446                       (Unspecified)
system.ruby.network.routers9.throttle01.msg_bytes.Response_Data::1       104112                       (Unspecified)
system.ruby.power_state.pwrStateResidencyTicks::UNDEFINED 1359825252000                       # Cumulative time (in ticks) in various power states (Tick)
system.ruby_am.power_state.pwrStateResidencyTicks::UNDEFINED 1359825252000                       # Cumulative time (in ticks) in various power states (Tick)
system.sys_port_proxy.power_state.pwrStateResidencyTicks::UNDEFINED 1359825252000                       # Cumulative time (in ticks) in various power states (Tick)
system.workload.inst.arm                            0                       # number of arm instructions executed (Count)
system.workload.inst.quiesce                        0                       # number of quiesce instructions executed (Count)
system.cpu0.active_message_ack_latency              0                       # active messages ACK latency (Unspecified)
system.cpu0.active_message_nack_latency             0                       # active messages NACK latency (Unspecified)
system.cpu0.appl_num_steal_failed                   0                       # number of failed steals (Unspecified)
system.cpu0.appl_num_steal_successful               0                       # number of successful steals (Unspecified)
system.cpu0.appl_steal_failed_cycles                0                       # cycles of failed steals (Unspecified)
system.cpu0.appl_steal_successful_cycles            0                       # cycles of successful steals (Unspecified)
system.cpu0.num_active_message_ack                  0                       # number of active messages ACK received (Unspecified)
system.cpu0.num_active_message_nack                 0                       # number of active messages NACK received (Unspecified)
system.cpu0.uli_req_received                        0                       # number of uli request received (Unspecified)
system.cpu0.uli_req_sent                            1                       # number of uli request sent (Unspecified)
system.cpu0.uli_resp_ack_received                   0                       # number of uli ack response received (Unspecified)
system.cpu0.uli_resp_ack_sent                       0                       # number of uli ack response sent (Unspecified)
system.cpu0.uli_resp_nack_received                  0                       # number of uli nack response received (Unspecified)
system.cpu0.uli_resp_nack_sent                      0                       # number of uli nack response sent (Unspecified)
system.cpu1.active_message_ack_latency              0                       # active messages ACK latency (Unspecified)
system.cpu1.active_message_nack_latency             0                       # active messages NACK latency (Unspecified)
system.cpu1.appl_num_steal_failed                   0                       # number of failed steals (Unspecified)
system.cpu1.appl_num_steal_successful               0                       # number of successful steals (Unspecified)
system.cpu1.appl_steal_failed_cycles                0                       # cycles of failed steals (Unspecified)
system.cpu1.appl_steal_successful_cycles            0                       # cycles of successful steals (Unspecified)
system.cpu1.num_active_message_ack                  0                       # number of active messages ACK received (Unspecified)
system.cpu1.num_active_message_nack                 0                       # number of active messages NACK received (Unspecified)
system.cpu1.uli_req_received                        1                       # number of uli request received (Unspecified)
system.cpu1.uli_req_sent                            0                       # number of uli request sent (Unspecified)
system.cpu1.uli_resp_ack_received                   0                       # number of uli ack response received (Unspecified)
system.cpu1.uli_resp_ack_sent                       0                       # number of uli ack response sent (Unspecified)
system.cpu1.uli_resp_nack_received                  0                       # number of uli nack response received (Unspecified)
system.cpu1.uli_resp_nack_sent                      0                       # number of uli nack response sent (Unspecified)
system.cpu2.active_message_ack_latency              0                       # active messages ACK latency (Unspecified)
system.cpu2.active_message_nack_latency             0                       # active messages NACK latency (Unspecified)
system.cpu2.appl_num_steal_failed                   0                       # number of failed steals (Unspecified)
system.cpu2.appl_num_steal_successful               0                       # number of successful steals (Unspecified)
system.cpu2.appl_steal_failed_cycles                0                       # cycles of failed steals (Unspecified)
system.cpu2.appl_steal_successful_cycles            0                       # cycles of successful steals (Unspecified)
system.cpu2.num_active_message_ack                  0                       # number of active messages ACK received (Unspecified)
system.cpu2.num_active_message_nack                 0                       # number of active messages NACK received (Unspecified)
system.cpu2.uli_req_received                        0                       # number of uli request received (Unspecified)
system.cpu2.uli_req_sent                            1                       # number of uli request sent (Unspecified)
system.cpu2.uli_resp_ack_received                   0                       # number of uli ack response received (Unspecified)
system.cpu2.uli_resp_ack_sent                       0                       # number of uli ack response sent (Unspecified)
system.cpu2.uli_resp_nack_received                  0                       # number of uli nack response received (Unspecified)
system.cpu2.uli_resp_nack_sent                      0                       # number of uli nack response sent (Unspecified)
system.cpu3.active_message_ack_latency              0                       # active messages ACK latency (Unspecified)
system.cpu3.active_message_nack_latency             0                       # active messages NACK latency (Unspecified)
system.cpu3.appl_num_steal_failed                   0                       # number of failed steals (Unspecified)
system.cpu3.appl_num_steal_successful               0                       # number of successful steals (Unspecified)
system.cpu3.appl_steal_failed_cycles                0                       # cycles of failed steals (Unspecified)
system.cpu3.appl_steal_successful_cycles            0                       # cycles of successful steals (Unspecified)
system.cpu3.num_active_message_ack                  0                       # number of active messages ACK received (Unspecified)
system.cpu3.num_active_message_nack                 0                       # number of active messages NACK received (Unspecified)
system.cpu3.uli_req_received                        1                       # number of uli request received (Unspecified)
system.cpu3.uli_req_sent                            0                       # number of uli request sent (Unspecified)
system.cpu3.uli_resp_ack_received                   0                       # number of uli ack response received (Unspecified)
system.cpu3.uli_resp_ack_sent                       0                       # number of uli ack response sent (Unspecified)
system.cpu3.uli_resp_nack_received                  0                       # number of uli nack response received (Unspecified)
system.cpu3.uli_resp_nack_sent                      0                       # number of uli nack response sent (Unspecified)

---------- End Simulation Statistics   ----------
