
---------- Begin Simulation Statistics ----------
simSeconds                                   0.029099                       # Number of seconds simulated (Second)
simTicks                                  29098633000                       # Number of ticks simulated (Tick)
finalTick                                 29098633000                       # Number of ticks from beginning of simulation (restored from checkpoints and never reset) (Tick)
simFreq                                  1000000000000                       # The number of ticks per simulated second ((Tick/Second))
hostSeconds                                     42.13                       # Real time elapsed on the host (Second)
hostTickRate                                690759379                       # The number of ticks simulated per host second (ticks/s) ((Tick/Second))
hostMemory                                    1037508                       # Number of bytes of host memory used (Byte)
simInsts                                     11217759                       # Number of instructions simulated (Count)
simOps                                       11348911                       # Number of ops (including micro ops) simulated (Count)
hostInstRate                                   266293                       # Simulator instruction rate (inst/s) ((Count/Second))
hostOpRate                                     269406                       # Simulator op (including micro ops) rate (op/s) ((Count/Second))
system.adapters0.cpuReqBuffer.m_msg_count            1                       # Number of messages passed the buffer (Count)
system.adapters0.cpuReqBuffer.m_buf_msgs     0.000000                       # Average number of messages in buffer ((Count/Tick))
system.adapters0.cpuReqBuffer.m_occupancy     0.000000                       # Average occupancy of buffer capacity ((Ratio/Tick))
system.adapters0.power_state.pwrStateResidencyTicks::UNDEFINED  29098633000                       # Cumulative time (in ticks) in various power states (Tick)
system.adapters1.networkReqBuffer.m_msg_count            1                       # Number of messages passed the buffer (Count)
system.adapters1.networkReqBuffer.m_buf_msgs     0.000000                       # Average number of messages in buffer ((Count/Tick))
system.adapters1.networkReqBuffer.m_occupancy     0.000000                       # Average occupancy of buffer capacity ((Ratio/Tick))
system.adapters1.power_state.pwrStateResidencyTicks::UNDEFINED  29098633000                       # Cumulative time (in ticks) in various power states (Tick)
system.adapters2.cpuReqBuffer.m_msg_count            1                       # Number of messages passed the buffer (Count)
system.adapters2.cpuReqBuffer.m_buf_msgs     0.000000                       # Average number of messages in buffer ((Count/Tick))
system.adapters2.cpuReqBuffer.m_occupancy     0.000000                       # Average occupancy of buffer capacity ((Ratio/Tick))
system.adapters2.power_state.pwrStateResidencyTicks::UNDEFINED  29098633000                       # Cumulative time (in ticks) in various power states (Tick)
system.adapters3.networkReqBuffer.m_msg_count            1                       # Number of messages passed the buffer (Count)
system.adapters3.networkReqBuffer.m_buf_msgs     0.000000                       # Average number of messages in buffer ((Count/Tick))
system.adapters3.networkReqBuffer.m_occupancy     0.000000                       # Average occupancy of buffer capacity ((Ratio/Tick))
system.adapters3.power_state.pwrStateResidencyTicks::UNDEFINED  29098633000                       # Cumulative time (in ticks) in various power states (Tick)
system.am_network.msg_count.Control                 4                       (Unspecified)
system.am_network.msg_byte.Control                 32                       (Unspecified)
system.am_network.int_links0.buffers1.m_msg_count            1                       # Number of messages passed the buffer (Count)
system.am_network.int_links0.buffers1.m_buf_msgs     0.000000                       # Average number of messages in buffer ((Count/Tick))
system.am_network.int_links2.buffers1.m_msg_count            1                       # Number of messages passed the buffer (Count)
system.am_network.int_links2.buffers1.m_buf_msgs     0.000000                       # Average number of messages in buffer ((Count/Tick))
system.am_network.power_state.pwrStateResidencyTicks::UNDEFINED  29098633000                       # Cumulative time (in ticks) in various power states (Tick)
system.am_network.routers0.percent_links_utilized     0.000001                       (Unspecified)
system.am_network.routers0.msg_count.Control::1            1                       (Unspecified)
system.am_network.routers0.msg_bytes.Control::1            8                       (Unspecified)
system.am_network.routers0.port_buffers3.m_msg_count            1                       # Number of messages passed the buffer (Count)
system.am_network.routers0.port_buffers3.m_buf_msgs     0.000000                       # Average number of messages in buffer ((Count/Tick))
system.am_network.routers0.port_buffers3.m_occupancy     0.000000                       # Average occupancy of buffer capacity ((Ratio/Tick))
system.am_network.routers0.power_state.pwrStateResidencyTicks::UNDEFINED  29098633000                       # Cumulative time (in ticks) in various power states (Tick)
system.am_network.routers0.throttle00.acc_link_utilization            0                       # Accumulated link utilization (Count)
system.am_network.routers0.throttle00.link_utilization            0                       # Average link utilization (Ratio)
system.am_network.routers0.throttle00.total_msg_count            0                       # Total number of messages forwarded by this switch (Count)
system.am_network.routers0.throttle00.total_msg_bytes            0                       # Total number of bytes forwarded by this switch (Byte)
system.am_network.routers0.throttle00.total_data_msg_bytes            0                       # Total number of data bytes forwarded by this switch (Byte)
system.am_network.routers0.throttle00.total_msg_wait_time            0                       # Total time spend forwarding messages (Tick)
system.am_network.routers0.throttle00.total_stall_cy            0                       # Total time spent blocked on any output link (Cycle)
system.am_network.routers0.throttle00.total_bw_sat_cy            0                       # Total time bandwidth was saturated on any output link (Cycle)
system.am_network.routers0.throttle00.avg_msg_wait_time          nan                       # Average time a message took to be forwarded (Ratio)
system.am_network.routers0.throttle00.avg_bandwidth         0.00                       # Average bandwidth (GB/s) (Ratio)
system.am_network.routers0.throttle00.avg_useful_bandwidth         0.00                       # Average usefull (only data) bandwidth (GB/s) (Ratio)
system.am_network.routers0.throttle01.acc_link_utilization     0.500000                       # Accumulated link utilization (Count)
system.am_network.routers0.throttle01.link_utilization     0.000002                       # Average link utilization (Ratio)
system.am_network.routers0.throttle01.total_msg_count            1                       # Total number of messages forwarded by this switch (Count)
system.am_network.routers0.throttle01.total_msg_bytes            8                       # Total number of bytes forwarded by this switch (Byte)
system.am_network.routers0.throttle01.total_data_msg_bytes            0                       # Total number of data bytes forwarded by this switch (Byte)
system.am_network.routers0.throttle01.total_msg_wait_time            0                       # Total time spend forwarding messages (Tick)
system.am_network.routers0.throttle01.total_stall_cy            0                       # Total time spent blocked on any output link (Cycle)
system.am_network.routers0.throttle01.total_bw_sat_cy            0                       # Total time bandwidth was saturated on any output link (Cycle)
system.am_network.routers0.throttle01.avg_msg_wait_time            0                       # Average time a message took to be forwarded (Ratio)
system.am_network.routers0.throttle01.avg_bandwidth         0.00                       # Average bandwidth (GB/s) (Ratio)
system.am_network.routers0.throttle01.avg_useful_bandwidth         0.00                       # Average usefull (only data) bandwidth (GB/s) (Ratio)
system.am_network.routers0.throttle01.msg_count.Control::1            1                       (Unspecified)
system.am_network.routers0.throttle01.msg_bytes.Control::1            8                       (Unspecified)
system.am_network.routers1.percent_links_utilized     0.000001                       (Unspecified)
system.am_network.routers1.msg_count.Control::1            1                       (Unspecified)
system.am_network.routers1.msg_bytes.Control::1            8                       (Unspecified)
system.am_network.routers1.port_buffers1.m_msg_count            1                       # Number of messages passed the buffer (Count)
system.am_network.routers1.port_buffers1.m_buf_msgs     0.000000                       # Average number of messages in buffer ((Count/Tick))
system.am_network.routers1.port_buffers1.m_occupancy     0.000000                       # Average occupancy of buffer capacity ((Ratio/Tick))
system.am_network.routers1.power_state.pwrStateResidencyTicks::UNDEFINED  29098633000                       # Cumulative time (in ticks) in various power states (Tick)
system.am_network.routers1.throttle00.acc_link_utilization     0.500000                       # Accumulated link utilization (Count)
system.am_network.routers1.throttle00.link_utilization     0.000002                       # Average link utilization (Ratio)
system.am_network.routers1.throttle00.total_msg_count            1                       # Total number of messages forwarded by this switch (Count)
system.am_network.routers1.throttle00.total_msg_bytes            8                       # Total number of bytes forwarded by this switch (Byte)
system.am_network.routers1.throttle00.total_data_msg_bytes            0                       # Total number of data bytes forwarded by this switch (Byte)
system.am_network.routers1.throttle00.total_msg_wait_time            0                       # Total time spend forwarding messages (Tick)
system.am_network.routers1.throttle00.total_stall_cy            0                       # Total time spent blocked on any output link (Cycle)
system.am_network.routers1.throttle00.total_bw_sat_cy            0                       # Total time bandwidth was saturated on any output link (Cycle)
system.am_network.routers1.throttle00.avg_msg_wait_time            0                       # Average time a message took to be forwarded (Ratio)
system.am_network.routers1.throttle00.avg_bandwidth         0.00                       # Average bandwidth (GB/s) (Ratio)
system.am_network.routers1.throttle00.avg_useful_bandwidth         0.00                       # Average usefull (only data) bandwidth (GB/s) (Ratio)
system.am_network.routers1.throttle00.msg_count.Control::1            1                       (Unspecified)
system.am_network.routers1.throttle00.msg_bytes.Control::1            8                       (Unspecified)
system.am_network.routers1.throttle01.acc_link_utilization            0                       # Accumulated link utilization (Count)
system.am_network.routers1.throttle01.link_utilization            0                       # Average link utilization (Ratio)
system.am_network.routers1.throttle01.total_msg_count            0                       # Total number of messages forwarded by this switch (Count)
system.am_network.routers1.throttle01.total_msg_bytes            0                       # Total number of bytes forwarded by this switch (Byte)
system.am_network.routers1.throttle01.total_data_msg_bytes            0                       # Total number of data bytes forwarded by this switch (Byte)
system.am_network.routers1.throttle01.total_msg_wait_time            0                       # Total time spend forwarding messages (Tick)
system.am_network.routers1.throttle01.total_stall_cy            0                       # Total time spent blocked on any output link (Cycle)
system.am_network.routers1.throttle01.total_bw_sat_cy            0                       # Total time bandwidth was saturated on any output link (Cycle)
system.am_network.routers1.throttle01.avg_msg_wait_time          nan                       # Average time a message took to be forwarded (Ratio)
system.am_network.routers1.throttle01.avg_bandwidth         0.00                       # Average bandwidth (GB/s) (Ratio)
system.am_network.routers1.throttle01.avg_useful_bandwidth         0.00                       # Average usefull (only data) bandwidth (GB/s) (Ratio)
system.am_network.routers1.throttle02.acc_link_utilization            0                       # Accumulated link utilization (Count)
system.am_network.routers1.throttle02.link_utilization            0                       # Average link utilization (Ratio)
system.am_network.routers1.throttle02.total_msg_count            0                       # Total number of messages forwarded by this switch (Count)
system.am_network.routers1.throttle02.total_msg_bytes            0                       # Total number of bytes forwarded by this switch (Byte)
system.am_network.routers1.throttle02.total_data_msg_bytes            0                       # Total number of data bytes forwarded by this switch (Byte)
system.am_network.routers1.throttle02.total_msg_wait_time            0                       # Total time spend forwarding messages (Tick)
system.am_network.routers1.throttle02.total_stall_cy            0                       # Total time spent blocked on any output link (Cycle)
system.am_network.routers1.throttle02.total_bw_sat_cy            0                       # Total time bandwidth was saturated on any output link (Cycle)
system.am_network.routers1.throttle02.avg_msg_wait_time          nan                       # Average time a message took to be forwarded (Ratio)
system.am_network.routers1.throttle02.avg_bandwidth         0.00                       # Average bandwidth (GB/s) (Ratio)
system.am_network.routers1.throttle02.avg_useful_bandwidth         0.00                       # Average usefull (only data) bandwidth (GB/s) (Ratio)
system.am_network.routers2.percent_links_utilized     0.000001                       (Unspecified)
system.am_network.routers2.msg_count.Control::1            1                       (Unspecified)
system.am_network.routers2.msg_bytes.Control::1            8                       (Unspecified)
system.am_network.routers2.port_buffers5.m_msg_count            1                       # Number of messages passed the buffer (Count)
system.am_network.routers2.port_buffers5.m_buf_msgs     0.000000                       # Average number of messages in buffer ((Count/Tick))
system.am_network.routers2.port_buffers5.m_occupancy     0.000000                       # Average occupancy of buffer capacity ((Ratio/Tick))
system.am_network.routers2.power_state.pwrStateResidencyTicks::UNDEFINED  29098633000                       # Cumulative time (in ticks) in various power states (Tick)
system.am_network.routers2.throttle00.acc_link_utilization            0                       # Accumulated link utilization (Count)
system.am_network.routers2.throttle00.link_utilization            0                       # Average link utilization (Ratio)
system.am_network.routers2.throttle00.total_msg_count            0                       # Total number of messages forwarded by this switch (Count)
system.am_network.routers2.throttle00.total_msg_bytes            0                       # Total number of bytes forwarded by this switch (Byte)
system.am_network.routers2.throttle00.total_data_msg_bytes            0                       # Total number of data bytes forwarded by this switch (Byte)
system.am_network.routers2.throttle00.total_msg_wait_time            0                       # Total time spend forwarding messages (Tick)
system.am_network.routers2.throttle00.total_stall_cy            0                       # Total time spent blocked on any output link (Cycle)
system.am_network.routers2.throttle00.total_bw_sat_cy            0                       # Total time bandwidth was saturated on any output link (Cycle)
system.am_network.routers2.throttle00.avg_msg_wait_time          nan                       # Average time a message took to be forwarded (Ratio)
system.am_network.routers2.throttle00.avg_bandwidth         0.00                       # Average bandwidth (GB/s) (Ratio)
system.am_network.routers2.throttle00.avg_useful_bandwidth         0.00                       # Average usefull (only data) bandwidth (GB/s) (Ratio)
system.am_network.routers2.throttle01.acc_link_utilization            0                       # Accumulated link utilization (Count)
system.am_network.routers2.throttle01.link_utilization            0                       # Average link utilization (Ratio)
system.am_network.routers2.throttle01.total_msg_count            0                       # Total number of messages forwarded by this switch (Count)
system.am_network.routers2.throttle01.total_msg_bytes            0                       # Total number of bytes forwarded by this switch (Byte)
system.am_network.routers2.throttle01.total_data_msg_bytes            0                       # Total number of data bytes forwarded by this switch (Byte)
system.am_network.routers2.throttle01.total_msg_wait_time            0                       # Total time spend forwarding messages (Tick)
system.am_network.routers2.throttle01.total_stall_cy            0                       # Total time spent blocked on any output link (Cycle)
system.am_network.routers2.throttle01.total_bw_sat_cy            0                       # Total time bandwidth was saturated on any output link (Cycle)
system.am_network.routers2.throttle01.avg_msg_wait_time          nan                       # Average time a message took to be forwarded (Ratio)
system.am_network.routers2.throttle01.avg_bandwidth         0.00                       # Average bandwidth (GB/s) (Ratio)
system.am_network.routers2.throttle01.avg_useful_bandwidth         0.00                       # Average usefull (only data) bandwidth (GB/s) (Ratio)
system.am_network.routers2.throttle02.acc_link_utilization     0.500000                       # Accumulated link utilization (Count)
system.am_network.routers2.throttle02.link_utilization     0.000002                       # Average link utilization (Ratio)
system.am_network.routers2.throttle02.total_msg_count            1                       # Total number of messages forwarded by this switch (Count)
system.am_network.routers2.throttle02.total_msg_bytes            8                       # Total number of bytes forwarded by this switch (Byte)
system.am_network.routers2.throttle02.total_data_msg_bytes            0                       # Total number of data bytes forwarded by this switch (Byte)
system.am_network.routers2.throttle02.total_msg_wait_time            0                       # Total time spend forwarding messages (Tick)
system.am_network.routers2.throttle02.total_stall_cy            0                       # Total time spent blocked on any output link (Cycle)
system.am_network.routers2.throttle02.total_bw_sat_cy            0                       # Total time bandwidth was saturated on any output link (Cycle)
system.am_network.routers2.throttle02.avg_msg_wait_time            0                       # Average time a message took to be forwarded (Ratio)
system.am_network.routers2.throttle02.avg_bandwidth         0.00                       # Average bandwidth (GB/s) (Ratio)
system.am_network.routers2.throttle02.avg_useful_bandwidth         0.00                       # Average usefull (only data) bandwidth (GB/s) (Ratio)
system.am_network.routers2.throttle02.msg_count.Control::1            1                       (Unspecified)
system.am_network.routers2.throttle02.msg_bytes.Control::1            8                       (Unspecified)
system.am_network.routers3.percent_links_utilized     0.000001                       (Unspecified)
system.am_network.routers3.msg_count.Control::1            1                       (Unspecified)
system.am_network.routers3.msg_bytes.Control::1            8                       (Unspecified)
system.am_network.routers3.port_buffers1.m_msg_count            1                       # Number of messages passed the buffer (Count)
system.am_network.routers3.port_buffers1.m_buf_msgs     0.000000                       # Average number of messages in buffer ((Count/Tick))
system.am_network.routers3.port_buffers1.m_occupancy     0.000000                       # Average occupancy of buffer capacity ((Ratio/Tick))
system.am_network.routers3.power_state.pwrStateResidencyTicks::UNDEFINED  29098633000                       # Cumulative time (in ticks) in various power states (Tick)
system.am_network.routers3.throttle00.acc_link_utilization     0.500000                       # Accumulated link utilization (Count)
system.am_network.routers3.throttle00.link_utilization     0.000002                       # Average link utilization (Ratio)
system.am_network.routers3.throttle00.total_msg_count            1                       # Total number of messages forwarded by this switch (Count)
system.am_network.routers3.throttle00.total_msg_bytes            8                       # Total number of bytes forwarded by this switch (Byte)
system.am_network.routers3.throttle00.total_data_msg_bytes            0                       # Total number of data bytes forwarded by this switch (Byte)
system.am_network.routers3.throttle00.total_msg_wait_time            0                       # Total time spend forwarding messages (Tick)
system.am_network.routers3.throttle00.total_stall_cy            0                       # Total time spent blocked on any output link (Cycle)
system.am_network.routers3.throttle00.total_bw_sat_cy            0                       # Total time bandwidth was saturated on any output link (Cycle)
system.am_network.routers3.throttle00.avg_msg_wait_time            0                       # Average time a message took to be forwarded (Ratio)
system.am_network.routers3.throttle00.avg_bandwidth         0.00                       # Average bandwidth (GB/s) (Ratio)
system.am_network.routers3.throttle00.avg_useful_bandwidth         0.00                       # Average usefull (only data) bandwidth (GB/s) (Ratio)
system.am_network.routers3.throttle00.msg_count.Control::1            1                       (Unspecified)
system.am_network.routers3.throttle00.msg_bytes.Control::1            8                       (Unspecified)
system.am_network.routers3.throttle01.acc_link_utilization            0                       # Accumulated link utilization (Count)
system.am_network.routers3.throttle01.link_utilization            0                       # Average link utilization (Ratio)
system.am_network.routers3.throttle01.total_msg_count            0                       # Total number of messages forwarded by this switch (Count)
system.am_network.routers3.throttle01.total_msg_bytes            0                       # Total number of bytes forwarded by this switch (Byte)
system.am_network.routers3.throttle01.total_data_msg_bytes            0                       # Total number of data bytes forwarded by this switch (Byte)
system.am_network.routers3.throttle01.total_msg_wait_time            0                       # Total time spend forwarding messages (Tick)
system.am_network.routers3.throttle01.total_stall_cy            0                       # Total time spent blocked on any output link (Cycle)
system.am_network.routers3.throttle01.total_bw_sat_cy            0                       # Total time bandwidth was saturated on any output link (Cycle)
system.am_network.routers3.throttle01.avg_msg_wait_time          nan                       # Average time a message took to be forwarded (Ratio)
system.am_network.routers3.throttle01.avg_bandwidth         0.00                       # Average bandwidth (GB/s) (Ratio)
system.am_network.routers3.throttle01.avg_useful_bandwidth         0.00                       # Average usefull (only data) bandwidth (GB/s) (Ratio)
system.clk_domain.clock                          1000                       # Clock period in ticks (Tick)
system.clk_domain.voltage_domain.voltage            1                       # Voltage in Volts (Volt)
system.cpu0.numCycles                        29098633                       # Number of cpu cycles simulated (Cycle)
system.cpu0.numWorkItemsStarted                     0                       # Number of work items this cpu started (Count)
system.cpu0.numWorkItemsCompleted                   0                       # Number of work items this cpu completed (Count)
system.cpu0.exec_context.thread_0.numInsts      2847046                       # Number of instructions committed (Count)
system.cpu0.exec_context.thread_0.numOps      2879871                       # Number of ops (including micro ops) committed (Count)
system.cpu0.exec_context.thread_0.numIntAluAccesses      2750434                       # Number of integer alu accesses (Count)
system.cpu0.exec_context.thread_0.numFpAluAccesses           12                       # Number of float alu accesses (Count)
system.cpu0.exec_context.thread_0.numVecAluAccesses            0                       # Number of vector alu accesses (Count)
system.cpu0.exec_context.thread_0.numCallsReturns       330503                       # Number of times a function call or return occured (Count)
system.cpu0.exec_context.thread_0.numCondCtrlInsts       387324                       # Number of instructions that are conditional controls (Count)
system.cpu0.exec_context.thread_0.numIntInsts      2750434                       # Number of integer instructions (Count)
system.cpu0.exec_context.thread_0.numFpInsts           12                       # Number of float instructions (Count)
system.cpu0.exec_context.thread_0.numVecInsts            0                       # Number of vector instructions (Count)
system.cpu0.exec_context.thread_0.numIntRegReads      2498665                       # Number of times the integer registers were read (Count)
system.cpu0.exec_context.thread_0.numIntRegWrites      1958814                       # Number of times the integer registers were written (Count)
system.cpu0.exec_context.thread_0.numFpRegReads           12                       # Number of times the floating registers were read (Count)
system.cpu0.exec_context.thread_0.numFpRegWrites            0                       # Number of times the floating registers were written (Count)
system.cpu0.exec_context.thread_0.numVecRegReads            0                       # Number of times the vector registers were read (Count)
system.cpu0.exec_context.thread_0.numVecRegWrites            0                       # Number of times the vector registers were written (Count)
system.cpu0.exec_context.thread_0.numVecPredRegReads            0                       # Number of times the predicate registers were read (Count)
system.cpu0.exec_context.thread_0.numVecPredRegWrites            0                       # Number of times the predicate registers were written (Count)
system.cpu0.exec_context.thread_0.numMiscRegReads        65614                       # Number of times the Misc registers were read (Count)
system.cpu0.exec_context.thread_0.numMiscRegWrites            7                       # Number of times the Misc registers were written (Count)
system.cpu0.exec_context.thread_0.numMemRefs       745634                       # Number of memory refs (Count)
system.cpu0.exec_context.thread_0.numLoadInsts       441145                       # Number of load instructions (Count)
system.cpu0.exec_context.thread_0.numStoreInsts       304489                       # Number of store instructions (Count)
system.cpu0.exec_context.thread_0.numIdleCycles 17165561.000410                       # Number of idle cycles (Cycle)
system.cpu0.exec_context.thread_0.numBusyCycles 11933071.999590                       # Number of busy cycles (Cycle)
system.cpu0.exec_context.thread_0.notIdleFraction     0.410090                       # Percentage of non-idle cycles (Ratio)
system.cpu0.exec_context.thread_0.idleFraction     0.589910                       # Percentage of idle cycles (Ratio)
system.cpu0.exec_context.thread_0.numBranches       781772                       # Number of branches fetched (Count)
system.cpu0.exec_context.thread_0.statExecutedInstType::No_OpClass       131278      4.46%      4.46% # Class of executed instruction. (Count)
system.cpu0.exec_context.thread_0.statExecutedInstType::IntAlu      2068514     70.23%     74.68% # Class of executed instruction. (Count)
system.cpu0.exec_context.thread_0.statExecutedInstType::IntMult           19      0.00%     74.68% # Class of executed instruction. (Count)
system.cpu0.exec_context.thread_0.statExecutedInstType::IntDiv            9      0.00%     74.69% # Class of executed instruction. (Count)
system.cpu0.exec_context.thread_0.statExecutedInstType::FloatAdd            0      0.00%     74.69% # Class of executed instruction. (Count)
system.cpu0.exec_context.thread_0.statExecutedInstType::FloatCmp            0      0.00%     74.69% # Class of executed instruction. (Count)
system.cpu0.exec_context.thread_0.statExecutedInstType::FloatCvt            0      0.00%     74.69% # Class of executed instruction. (Count)
system.cpu0.exec_context.thread_0.statExecutedInstType::FloatMult            0      0.00%     74.69% # Class of executed instruction. (Count)
system.cpu0.exec_context.thread_0.statExecutedInstType::FloatMultAcc            0      0.00%     74.69% # Class of executed instruction. (Count)
system.cpu0.exec_context.thread_0.statExecutedInstType::FloatDiv            0      0.00%     74.69% # Class of executed instruction. (Count)
system.cpu0.exec_context.thread_0.statExecutedInstType::FloatMisc            0      0.00%     74.69% # Class of executed instruction. (Count)
system.cpu0.exec_context.thread_0.statExecutedInstType::FloatSqrt            0      0.00%     74.69% # Class of executed instruction. (Count)
system.cpu0.exec_context.thread_0.statExecutedInstType::SimdAdd            0      0.00%     74.69% # Class of executed instruction. (Count)
system.cpu0.exec_context.thread_0.statExecutedInstType::SimdAddAcc            0      0.00%     74.69% # Class of executed instruction. (Count)
system.cpu0.exec_context.thread_0.statExecutedInstType::SimdAlu            0      0.00%     74.69% # Class of executed instruction. (Count)
system.cpu0.exec_context.thread_0.statExecutedInstType::SimdCmp            0      0.00%     74.69% # Class of executed instruction. (Count)
system.cpu0.exec_context.thread_0.statExecutedInstType::SimdCvt            0      0.00%     74.69% # Class of executed instruction. (Count)
system.cpu0.exec_context.thread_0.statExecutedInstType::SimdMisc            0      0.00%     74.69% # Class of executed instruction. (Count)
system.cpu0.exec_context.thread_0.statExecutedInstType::SimdMult            0      0.00%     74.69% # Class of executed instruction. (Count)
system.cpu0.exec_context.thread_0.statExecutedInstType::SimdMultAcc            0      0.00%     74.69% # Class of executed instruction. (Count)
system.cpu0.exec_context.thread_0.statExecutedInstType::SimdShift            0      0.00%     74.69% # Class of executed instruction. (Count)
system.cpu0.exec_context.thread_0.statExecutedInstType::SimdShiftAcc            0      0.00%     74.69% # Class of executed instruction. (Count)
system.cpu0.exec_context.thread_0.statExecutedInstType::SimdDiv            0      0.00%     74.69% # Class of executed instruction. (Count)
system.cpu0.exec_context.thread_0.statExecutedInstType::SimdSqrt            0      0.00%     74.69% # Class of executed instruction. (Count)
system.cpu0.exec_context.thread_0.statExecutedInstType::SimdFloatAdd            0      0.00%     74.69% # Class of executed instruction. (Count)
system.cpu0.exec_context.thread_0.statExecutedInstType::SimdFloatAlu            0      0.00%     74.69% # Class of executed instruction. (Count)
system.cpu0.exec_context.thread_0.statExecutedInstType::SimdFloatCmp            0      0.00%     74.69% # Class of executed instruction. (Count)
system.cpu0.exec_context.thread_0.statExecutedInstType::SimdFloatCvt            0      0.00%     74.69% # Class of executed instruction. (Count)
system.cpu0.exec_context.thread_0.statExecutedInstType::SimdFloatDiv            0      0.00%     74.69% # Class of executed instruction. (Count)
system.cpu0.exec_context.thread_0.statExecutedInstType::SimdFloatMisc            0      0.00%     74.69% # Class of executed instruction. (Count)
system.cpu0.exec_context.thread_0.statExecutedInstType::SimdFloatMult            0      0.00%     74.69% # Class of executed instruction. (Count)
system.cpu0.exec_context.thread_0.statExecutedInstType::SimdFloatMultAcc            0      0.00%     74.69% # Class of executed instruction. (Count)
system.cpu0.exec_context.thread_0.statExecutedInstType::SimdFloatSqrt            0      0.00%     74.69% # Class of executed instruction. (Count)
system.cpu0.exec_context.thread_0.statExecutedInstType::SimdReduceAdd            0      0.00%     74.69% # Class of executed instruction. (Count)
system.cpu0.exec_context.thread_0.statExecutedInstType::SimdReduceAlu            0      0.00%     74.69% # Class of executed instruction. (Count)
system.cpu0.exec_context.thread_0.statExecutedInstType::SimdReduceCmp            0      0.00%     74.69% # Class of executed instruction. (Count)
system.cpu0.exec_context.thread_0.statExecutedInstType::SimdFloatReduceAdd            0      0.00%     74.69% # Class of executed instruction. (Count)
system.cpu0.exec_context.thread_0.statExecutedInstType::SimdFloatReduceCmp            0      0.00%     74.69% # Class of executed instruction. (Count)
system.cpu0.exec_context.thread_0.statExecutedInstType::SimdAes            0      0.00%     74.69% # Class of executed instruction. (Count)
system.cpu0.exec_context.thread_0.statExecutedInstType::SimdAesMix            0      0.00%     74.69% # Class of executed instruction. (Count)
system.cpu0.exec_context.thread_0.statExecutedInstType::SimdSha1Hash            0      0.00%     74.69% # Class of executed instruction. (Count)
system.cpu0.exec_context.thread_0.statExecutedInstType::SimdSha1Hash2            0      0.00%     74.69% # Class of executed instruction. (Count)
system.cpu0.exec_context.thread_0.statExecutedInstType::SimdSha256Hash            0      0.00%     74.69% # Class of executed instruction. (Count)
system.cpu0.exec_context.thread_0.statExecutedInstType::SimdSha256Hash2            0      0.00%     74.69% # Class of executed instruction. (Count)
system.cpu0.exec_context.thread_0.statExecutedInstType::SimdShaSigma2            0      0.00%     74.69% # Class of executed instruction. (Count)
system.cpu0.exec_context.thread_0.statExecutedInstType::SimdShaSigma3            0      0.00%     74.69% # Class of executed instruction. (Count)
system.cpu0.exec_context.thread_0.statExecutedInstType::SimdPredAlu            0      0.00%     74.69% # Class of executed instruction. (Count)
system.cpu0.exec_context.thread_0.statExecutedInstType::MemRead       506751     17.20%     91.89% # Class of executed instruction. (Count)
system.cpu0.exec_context.thread_0.statExecutedInstType::MemWrite       238871      8.11%    100.00% # Class of executed instruction. (Count)
system.cpu0.exec_context.thread_0.statExecutedInstType::FloatMemRead            0      0.00%    100.00% # Class of executed instruction. (Count)
system.cpu0.exec_context.thread_0.statExecutedInstType::FloatMemWrite           12      0.00%    100.00% # Class of executed instruction. (Count)
system.cpu0.exec_context.thread_0.statExecutedInstType::IprAccess            0      0.00%    100.00% # Class of executed instruction. (Count)
system.cpu0.exec_context.thread_0.statExecutedInstType::InstPrefetch            0      0.00%    100.00% # Class of executed instruction. (Count)
system.cpu0.exec_context.thread_0.statExecutedInstType::total      2945454                       # Class of executed instruction. (Count)
system.cpu0.mmu.dtb.readHits                        0                       # read hits (Count)
system.cpu0.mmu.dtb.readMisses                      0                       # read misses (Count)
system.cpu0.mmu.dtb.readAccesses                    0                       # read accesses (Count)
system.cpu0.mmu.dtb.writeHits                       0                       # write hits (Count)
system.cpu0.mmu.dtb.writeMisses                     0                       # write misses (Count)
system.cpu0.mmu.dtb.writeAccesses                   0                       # write accesses (Count)
system.cpu0.mmu.dtb.hits                            0                       # Total TLB (read and write) hits (Count)
system.cpu0.mmu.dtb.misses                          0                       # Total TLB (read and write) misses (Count)
system.cpu0.mmu.dtb.accesses                        0                       # Total TLB (read and write) accesses (Count)
system.cpu0.mmu.dtb.walker.power_state.pwrStateResidencyTicks::UNDEFINED  29098633000                       # Cumulative time (in ticks) in various power states (Tick)
system.cpu0.mmu.itb.readHits                        0                       # read hits (Count)
system.cpu0.mmu.itb.readMisses                      0                       # read misses (Count)
system.cpu0.mmu.itb.readAccesses                    0                       # read accesses (Count)
system.cpu0.mmu.itb.writeHits                       0                       # write hits (Count)
system.cpu0.mmu.itb.writeMisses                     0                       # write misses (Count)
system.cpu0.mmu.itb.writeAccesses                   0                       # write accesses (Count)
system.cpu0.mmu.itb.hits                            0                       # Total TLB (read and write) hits (Count)
system.cpu0.mmu.itb.misses                          0                       # Total TLB (read and write) misses (Count)
system.cpu0.mmu.itb.accesses                        0                       # Total TLB (read and write) accesses (Count)
system.cpu0.mmu.itb.walker.power_state.pwrStateResidencyTicks::UNDEFINED  29098633000                       # Cumulative time (in ticks) in various power states (Tick)
system.cpu0.power_state.numTransitions          65540                       # Number of power state transitions (Count)
system.cpu0.power_state.ticksClkGated::samples        32770                       # Distribution of time spent in the clock gated state (Tick)
system.cpu0.power_state.ticksClkGated::mean 523819.377479                       # Distribution of time spent in the clock gated state (Tick)
system.cpu0.power_state.ticksClkGated::stdev 48589.470822                       # Distribution of time spent in the clock gated state (Tick)
system.cpu0.power_state.ticksClkGated::1000-5e+10        32770    100.00%    100.00% # Distribution of time spent in the clock gated state (Tick)
system.cpu0.power_state.ticksClkGated::min_value       215000                       # Distribution of time spent in the clock gated state (Tick)
system.cpu0.power_state.ticksClkGated::max_value      2972000                       # Distribution of time spent in the clock gated state (Tick)
system.cpu0.power_state.ticksClkGated::total        32770                       # Distribution of time spent in the clock gated state (Tick)
system.cpu0.power_state.pwrStateResidencyTicks::ON  11933072000                       # Cumulative time (in ticks) in various power states (Tick)
system.cpu0.power_state.pwrStateResidencyTicks::CLK_GATED  17165561000                       # Cumulative time (in ticks) in various power states (Tick)
system.cpu0.thread_0.numInsts                       0                       # Number of Instructions committed (Count)
system.cpu0.thread_0.numOps                         0                       # Number of Ops committed (Count)
system.cpu0.thread_0.numMemRefs                     0                       # Number of Memory References (Count)
system.cpu0.workload.numSyscalls                65574                       # Number of system calls (Count)
system.cpu1.numCycles                        29085352                       # Number of cpu cycles simulated (Cycle)
system.cpu1.numWorkItemsStarted                     0                       # Number of work items this cpu started (Count)
system.cpu1.numWorkItemsCompleted                   0                       # Number of work items this cpu completed (Count)
system.cpu1.exec_context.thread_0.numInsts      2792609                       # Number of instructions committed (Count)
system.cpu1.exec_context.thread_0.numOps      2825384                       # Number of ops (including micro ops) committed (Count)
system.cpu1.exec_context.thread_0.numIntAluAccesses      2696389                       # Number of integer alu accesses (Count)
system.cpu1.exec_context.thread_0.numFpAluAccesses           12                       # Number of float alu accesses (Count)
system.cpu1.exec_context.thread_0.numVecAluAccesses            0                       # Number of vector alu accesses (Count)
system.cpu1.exec_context.thread_0.numCallsReturns       327760                       # Number of times a function call or return occured (Count)
system.cpu1.exec_context.thread_0.numCondCtrlInsts       380322                       # Number of instructions that are conditional controls (Count)
system.cpu1.exec_context.thread_0.numIntInsts      2696389                       # Number of integer instructions (Count)
system.cpu1.exec_context.thread_0.numFpInsts           12                       # Number of float instructions (Count)
system.cpu1.exec_context.thread_0.numVecInsts            0                       # Number of vector instructions (Count)
system.cpu1.exec_context.thread_0.numIntRegReads      2433438                       # Number of times the integer registers were read (Count)
system.cpu1.exec_context.thread_0.numIntRegWrites      1922514                       # Number of times the integer registers were written (Count)
system.cpu1.exec_context.thread_0.numFpRegReads           12                       # Number of times the floating registers were read (Count)
system.cpu1.exec_context.thread_0.numFpRegWrites            0                       # Number of times the floating registers were written (Count)
system.cpu1.exec_context.thread_0.numVecRegReads            0                       # Number of times the vector registers were read (Count)
system.cpu1.exec_context.thread_0.numVecRegWrites            0                       # Number of times the vector registers were written (Count)
system.cpu1.exec_context.thread_0.numVecPredRegReads            0                       # Number of times the predicate registers were read (Count)
system.cpu1.exec_context.thread_0.numVecPredRegWrites            0                       # Number of times the predicate registers were written (Count)
system.cpu1.exec_context.thread_0.numMiscRegReads        65578                       # Number of times the Misc registers were read (Count)
system.cpu1.exec_context.thread_0.numMiscRegWrites            7                       # Number of times the Misc registers were written (Count)
system.cpu1.exec_context.thread_0.numMemRefs       725754                       # Number of memory refs (Count)
system.cpu1.exec_context.thread_0.numLoadInsts       430545                       # Number of load instructions (Count)
system.cpu1.exec_context.thread_0.numStoreInsts       295209                       # Number of store instructions (Count)
system.cpu1.exec_context.thread_0.numIdleCycles 21626826.724010                       # Number of idle cycles (Cycle)
system.cpu1.exec_context.thread_0.numBusyCycles 7458525.275990                       # Number of busy cycles (Cycle)
system.cpu1.exec_context.thread_0.notIdleFraction     0.256436                       # Percentage of non-idle cycles (Ratio)
system.cpu1.exec_context.thread_0.idleFraction     0.743564                       # Percentage of idle cycles (Ratio)
system.cpu1.exec_context.thread_0.numBranches       771533                       # Number of branches fetched (Count)
system.cpu1.exec_context.thread_0.statExecutedInstType::No_OpClass       131101      4.53%      4.53% # Class of executed instruction. (Count)
system.cpu1.exec_context.thread_0.statExecutedInstType::IntAlu      2034069     70.36%     74.90% # Class of executed instruction. (Count)
system.cpu1.exec_context.thread_0.statExecutedInstType::IntMult            0      0.00%     74.90% # Class of executed instruction. (Count)
system.cpu1.exec_context.thread_0.statExecutedInstType::IntDiv            2      0.00%     74.90% # Class of executed instruction. (Count)
system.cpu1.exec_context.thread_0.statExecutedInstType::FloatAdd            0      0.00%     74.90% # Class of executed instruction. (Count)
system.cpu1.exec_context.thread_0.statExecutedInstType::FloatCmp            0      0.00%     74.90% # Class of executed instruction. (Count)
system.cpu1.exec_context.thread_0.statExecutedInstType::FloatCvt            0      0.00%     74.90% # Class of executed instruction. (Count)
system.cpu1.exec_context.thread_0.statExecutedInstType::FloatMult            0      0.00%     74.90% # Class of executed instruction. (Count)
system.cpu1.exec_context.thread_0.statExecutedInstType::FloatMultAcc            0      0.00%     74.90% # Class of executed instruction. (Count)
system.cpu1.exec_context.thread_0.statExecutedInstType::FloatDiv            0      0.00%     74.90% # Class of executed instruction. (Count)
system.cpu1.exec_context.thread_0.statExecutedInstType::FloatMisc            0      0.00%     74.90% # Class of executed instruction. (Count)
system.cpu1.exec_context.thread_0.statExecutedInstType::FloatSqrt            0      0.00%     74.90% # Class of executed instruction. (Count)
system.cpu1.exec_context.thread_0.statExecutedInstType::SimdAdd            0      0.00%     74.90% # Class of executed instruction. (Count)
system.cpu1.exec_context.thread_0.statExecutedInstType::SimdAddAcc            0      0.00%     74.90% # Class of executed instruction. (Count)
system.cpu1.exec_context.thread_0.statExecutedInstType::SimdAlu            0      0.00%     74.90% # Class of executed instruction. (Count)
system.cpu1.exec_context.thread_0.statExecutedInstType::SimdCmp            0      0.00%     74.90% # Class of executed instruction. (Count)
system.cpu1.exec_context.thread_0.statExecutedInstType::SimdCvt            0      0.00%     74.90% # Class of executed instruction. (Count)
system.cpu1.exec_context.thread_0.statExecutedInstType::SimdMisc            0      0.00%     74.90% # Class of executed instruction. (Count)
system.cpu1.exec_context.thread_0.statExecutedInstType::SimdMult            0      0.00%     74.90% # Class of executed instruction. (Count)
system.cpu1.exec_context.thread_0.statExecutedInstType::SimdMultAcc            0      0.00%     74.90% # Class of executed instruction. (Count)
system.cpu1.exec_context.thread_0.statExecutedInstType::SimdShift            0      0.00%     74.90% # Class of executed instruction. (Count)
system.cpu1.exec_context.thread_0.statExecutedInstType::SimdShiftAcc            0      0.00%     74.90% # Class of executed instruction. (Count)
system.cpu1.exec_context.thread_0.statExecutedInstType::SimdDiv            0      0.00%     74.90% # Class of executed instruction. (Count)
system.cpu1.exec_context.thread_0.statExecutedInstType::SimdSqrt            0      0.00%     74.90% # Class of executed instruction. (Count)
system.cpu1.exec_context.thread_0.statExecutedInstType::SimdFloatAdd            0      0.00%     74.90% # Class of executed instruction. (Count)
system.cpu1.exec_context.thread_0.statExecutedInstType::SimdFloatAlu            0      0.00%     74.90% # Class of executed instruction. (Count)
system.cpu1.exec_context.thread_0.statExecutedInstType::SimdFloatCmp            0      0.00%     74.90% # Class of executed instruction. (Count)
system.cpu1.exec_context.thread_0.statExecutedInstType::SimdFloatCvt            0      0.00%     74.90% # Class of executed instruction. (Count)
system.cpu1.exec_context.thread_0.statExecutedInstType::SimdFloatDiv            0      0.00%     74.90% # Class of executed instruction. (Count)
system.cpu1.exec_context.thread_0.statExecutedInstType::SimdFloatMisc            0      0.00%     74.90% # Class of executed instruction. (Count)
system.cpu1.exec_context.thread_0.statExecutedInstType::SimdFloatMult            0      0.00%     74.90% # Class of executed instruction. (Count)
system.cpu1.exec_context.thread_0.statExecutedInstType::SimdFloatMultAcc            0      0.00%     74.90% # Class of executed instruction. (Count)
system.cpu1.exec_context.thread_0.statExecutedInstType::SimdFloatSqrt            0      0.00%     74.90% # Class of executed instruction. (Count)
system.cpu1.exec_context.thread_0.statExecutedInstType::SimdReduceAdd            0      0.00%     74.90% # Class of executed instruction. (Count)
system.cpu1.exec_context.thread_0.statExecutedInstType::SimdReduceAlu            0      0.00%     74.90% # Class of executed instruction. (Count)
system.cpu1.exec_context.thread_0.statExecutedInstType::SimdReduceCmp            0      0.00%     74.90% # Class of executed instruction. (Count)
system.cpu1.exec_context.thread_0.statExecutedInstType::SimdFloatReduceAdd            0      0.00%     74.90% # Class of executed instruction. (Count)
system.cpu1.exec_context.thread_0.statExecutedInstType::SimdFloatReduceCmp            0      0.00%     74.90% # Class of executed instruction. (Count)
system.cpu1.exec_context.thread_0.statExecutedInstType::SimdAes            0      0.00%     74.90% # Class of executed instruction. (Count)
system.cpu1.exec_context.thread_0.statExecutedInstType::SimdAesMix            0      0.00%     74.90% # Class of executed instruction. (Count)
system.cpu1.exec_context.thread_0.statExecutedInstType::SimdSha1Hash            0      0.00%     74.90% # Class of executed instruction. (Count)
system.cpu1.exec_context.thread_0.statExecutedInstType::SimdSha1Hash2            0      0.00%     74.90% # Class of executed instruction. (Count)
system.cpu1.exec_context.thread_0.statExecutedInstType::SimdSha256Hash            0      0.00%     74.90% # Class of executed instruction. (Count)
system.cpu1.exec_context.thread_0.statExecutedInstType::SimdSha256Hash2            0      0.00%     74.90% # Class of executed instruction. (Count)
system.cpu1.exec_context.thread_0.statExecutedInstType::SimdShaSigma2            0      0.00%     74.90% # Class of executed instruction. (Count)
system.cpu1.exec_context.thread_0.statExecutedInstType::SimdShaSigma3            0      0.00%     74.90% # Class of executed instruction. (Count)
system.cpu1.exec_context.thread_0.statExecutedInstType::SimdPredAlu            0      0.00%     74.90% # Class of executed instruction. (Count)
system.cpu1.exec_context.thread_0.statExecutedInstType::MemRead       496090     17.16%     92.06% # Class of executed instruction. (Count)
system.cpu1.exec_context.thread_0.statExecutedInstType::MemWrite       229652      7.94%    100.00% # Class of executed instruction. (Count)
system.cpu1.exec_context.thread_0.statExecutedInstType::FloatMemRead            0      0.00%    100.00% # Class of executed instruction. (Count)
system.cpu1.exec_context.thread_0.statExecutedInstType::FloatMemWrite           12      0.00%    100.00% # Class of executed instruction. (Count)
system.cpu1.exec_context.thread_0.statExecutedInstType::IprAccess            0      0.00%    100.00% # Class of executed instruction. (Count)
system.cpu1.exec_context.thread_0.statExecutedInstType::InstPrefetch            0      0.00%    100.00% # Class of executed instruction. (Count)
system.cpu1.exec_context.thread_0.statExecutedInstType::total      2890926                       # Class of executed instruction. (Count)
system.cpu1.mmu.dtb.readHits                        0                       # read hits (Count)
system.cpu1.mmu.dtb.readMisses                      0                       # read misses (Count)
system.cpu1.mmu.dtb.readAccesses                    0                       # read accesses (Count)
system.cpu1.mmu.dtb.writeHits                       0                       # write hits (Count)
system.cpu1.mmu.dtb.writeMisses                     0                       # write misses (Count)
system.cpu1.mmu.dtb.writeAccesses                   0                       # write accesses (Count)
system.cpu1.mmu.dtb.hits                            0                       # Total TLB (read and write) hits (Count)
system.cpu1.mmu.dtb.misses                          0                       # Total TLB (read and write) misses (Count)
system.cpu1.mmu.dtb.accesses                        0                       # Total TLB (read and write) accesses (Count)
system.cpu1.mmu.dtb.walker.power_state.pwrStateResidencyTicks::UNDEFINED  29098633000                       # Cumulative time (in ticks) in various power states (Tick)
system.cpu1.mmu.itb.readHits                        0                       # read hits (Count)
system.cpu1.mmu.itb.readMisses                      0                       # read misses (Count)
system.cpu1.mmu.itb.readAccesses                    0                       # read accesses (Count)
system.cpu1.mmu.itb.writeHits                       0                       # write hits (Count)
system.cpu1.mmu.itb.writeMisses                     0                       # write misses (Count)
system.cpu1.mmu.itb.writeAccesses                   0                       # write accesses (Count)
system.cpu1.mmu.itb.hits                            0                       # Total TLB (read and write) hits (Count)
system.cpu1.mmu.itb.misses                          0                       # Total TLB (read and write) misses (Count)
system.cpu1.mmu.itb.accesses                        0                       # Total TLB (read and write) accesses (Count)
system.cpu1.mmu.itb.walker.power_state.pwrStateResidencyTicks::UNDEFINED  29098633000                       # Cumulative time (in ticks) in various power states (Tick)
system.cpu1.power_state.numTransitions          65536                       # Number of power state transitions (Count)
system.cpu1.power_state.ticksClkGated::samples        32768                       # Distribution of time spent in the clock gated state (Tick)
system.cpu1.power_state.ticksClkGated::mean 654390.411377                       # Distribution of time spent in the clock gated state (Tick)
system.cpu1.power_state.ticksClkGated::stdev 62108.678739                       # Distribution of time spent in the clock gated state (Tick)
system.cpu1.power_state.ticksClkGated::1000-5e+10        32768    100.00%    100.00% # Distribution of time spent in the clock gated state (Tick)
system.cpu1.power_state.ticksClkGated::min_value        85000                       # Distribution of time spent in the clock gated state (Tick)
system.cpu1.power_state.ticksClkGated::max_value      1757000                       # Distribution of time spent in the clock gated state (Tick)
system.cpu1.power_state.ticksClkGated::total        32768                       # Distribution of time spent in the clock gated state (Tick)
system.cpu1.power_state.pwrStateResidencyTicks::ON   7655568000                       # Cumulative time (in ticks) in various power states (Tick)
system.cpu1.power_state.pwrStateResidencyTicks::CLK_GATED  21443065000                       # Cumulative time (in ticks) in various power states (Tick)
system.cpu1.thread_0.numInsts                       0                       # Number of Instructions committed (Count)
system.cpu1.thread_0.numOps                         0                       # Number of Ops committed (Count)
system.cpu1.thread_0.numMemRefs                     0                       # Number of Memory References (Count)
system.cpu2.numCycles                        29085352                       # Number of cpu cycles simulated (Cycle)
system.cpu2.numWorkItemsStarted                     0                       # Number of work items this cpu started (Count)
system.cpu2.numWorkItemsCompleted                   0                       # Number of work items this cpu completed (Count)
system.cpu2.exec_context.thread_0.numInsts      2791405                       # Number of instructions committed (Count)
system.cpu2.exec_context.thread_0.numOps      2824182                       # Number of ops (including micro ops) committed (Count)
system.cpu2.exec_context.thread_0.numIntAluAccesses      2695198                       # Number of integer alu accesses (Count)
system.cpu2.exec_context.thread_0.numFpAluAccesses           12                       # Number of float alu accesses (Count)
system.cpu2.exec_context.thread_0.numVecAluAccesses            0                       # Number of vector alu accesses (Count)
system.cpu2.exec_context.thread_0.numCallsReturns       327717                       # Number of times a function call or return occured (Count)
system.cpu2.exec_context.thread_0.numCondCtrlInsts       379862                       # Number of instructions that are conditional controls (Count)
system.cpu2.exec_context.thread_0.numIntInsts      2695198                       # Number of integer instructions (Count)
system.cpu2.exec_context.thread_0.numFpInsts           12                       # Number of float instructions (Count)
system.cpu2.exec_context.thread_0.numVecInsts            0                       # Number of vector instructions (Count)
system.cpu2.exec_context.thread_0.numIntRegReads      2432322                       # Number of times the integer registers were read (Count)
system.cpu2.exec_context.thread_0.numIntRegWrites      1921820                       # Number of times the integer registers were written (Count)
system.cpu2.exec_context.thread_0.numFpRegReads           12                       # Number of times the floating registers were read (Count)
system.cpu2.exec_context.thread_0.numFpRegWrites            0                       # Number of times the floating registers were written (Count)
system.cpu2.exec_context.thread_0.numVecRegReads            0                       # Number of times the vector registers were read (Count)
system.cpu2.exec_context.thread_0.numVecRegWrites            0                       # Number of times the vector registers were written (Count)
system.cpu2.exec_context.thread_0.numVecPredRegReads            0                       # Number of times the predicate registers were read (Count)
system.cpu2.exec_context.thread_0.numVecPredRegWrites            0                       # Number of times the predicate registers were written (Count)
system.cpu2.exec_context.thread_0.numMiscRegReads        65564                       # Number of times the Misc registers were read (Count)
system.cpu2.exec_context.thread_0.numMiscRegWrites            7                       # Number of times the Misc registers were written (Count)
system.cpu2.exec_context.thread_0.numMemRefs       725265                       # Number of memory refs (Count)
system.cpu2.exec_context.thread_0.numLoadInsts       430071                       # Number of load instructions (Count)
system.cpu2.exec_context.thread_0.numStoreInsts       295194                       # Number of store instructions (Count)
system.cpu2.exec_context.thread_0.numIdleCycles 17347900.574267                       # Number of idle cycles (Cycle)
system.cpu2.exec_context.thread_0.numBusyCycles 11737451.425733                       # Number of busy cycles (Cycle)
system.cpu2.exec_context.thread_0.notIdleFraction     0.403552                       # Percentage of non-idle cycles (Ratio)
system.cpu2.exec_context.thread_0.idleFraction     0.596448                       # Percentage of idle cycles (Ratio)
system.cpu2.exec_context.thread_0.numBranches       771017                       # Number of branches fetched (Count)
system.cpu2.exec_context.thread_0.statExecutedInstType::No_OpClass       131088      4.54%      4.54% # Class of executed instruction. (Count)
system.cpu2.exec_context.thread_0.statExecutedInstType::IntAlu      2033351     70.37%     74.90% # Class of executed instruction. (Count)
system.cpu2.exec_context.thread_0.statExecutedInstType::IntMult            0      0.00%     74.90% # Class of executed instruction. (Count)
system.cpu2.exec_context.thread_0.statExecutedInstType::IntDiv            2      0.00%     74.90% # Class of executed instruction. (Count)
system.cpu2.exec_context.thread_0.statExecutedInstType::FloatAdd            0      0.00%     74.90% # Class of executed instruction. (Count)
system.cpu2.exec_context.thread_0.statExecutedInstType::FloatCmp            0      0.00%     74.90% # Class of executed instruction. (Count)
system.cpu2.exec_context.thread_0.statExecutedInstType::FloatCvt            0      0.00%     74.90% # Class of executed instruction. (Count)
system.cpu2.exec_context.thread_0.statExecutedInstType::FloatMult            0      0.00%     74.90% # Class of executed instruction. (Count)
system.cpu2.exec_context.thread_0.statExecutedInstType::FloatMultAcc            0      0.00%     74.90% # Class of executed instruction. (Count)
system.cpu2.exec_context.thread_0.statExecutedInstType::FloatDiv            0      0.00%     74.90% # Class of executed instruction. (Count)
system.cpu2.exec_context.thread_0.statExecutedInstType::FloatMisc            0      0.00%     74.90% # Class of executed instruction. (Count)
system.cpu2.exec_context.thread_0.statExecutedInstType::FloatSqrt            0      0.00%     74.90% # Class of executed instruction. (Count)
system.cpu2.exec_context.thread_0.statExecutedInstType::SimdAdd            0      0.00%     74.90% # Class of executed instruction. (Count)
system.cpu2.exec_context.thread_0.statExecutedInstType::SimdAddAcc            0      0.00%     74.90% # Class of executed instruction. (Count)
system.cpu2.exec_context.thread_0.statExecutedInstType::SimdAlu            0      0.00%     74.90% # Class of executed instruction. (Count)
system.cpu2.exec_context.thread_0.statExecutedInstType::SimdCmp            0      0.00%     74.90% # Class of executed instruction. (Count)
system.cpu2.exec_context.thread_0.statExecutedInstType::SimdCvt            0      0.00%     74.90% # Class of executed instruction. (Count)
system.cpu2.exec_context.thread_0.statExecutedInstType::SimdMisc            0      0.00%     74.90% # Class of executed instruction. (Count)
system.cpu2.exec_context.thread_0.statExecutedInstType::SimdMult            0      0.00%     74.90% # Class of executed instruction. (Count)
system.cpu2.exec_context.thread_0.statExecutedInstType::SimdMultAcc            0      0.00%     74.90% # Class of executed instruction. (Count)
system.cpu2.exec_context.thread_0.statExecutedInstType::SimdShift            0      0.00%     74.90% # Class of executed instruction. (Count)
system.cpu2.exec_context.thread_0.statExecutedInstType::SimdShiftAcc            0      0.00%     74.90% # Class of executed instruction. (Count)
system.cpu2.exec_context.thread_0.statExecutedInstType::SimdDiv            0      0.00%     74.90% # Class of executed instruction. (Count)
system.cpu2.exec_context.thread_0.statExecutedInstType::SimdSqrt            0      0.00%     74.90% # Class of executed instruction. (Count)
system.cpu2.exec_context.thread_0.statExecutedInstType::SimdFloatAdd            0      0.00%     74.90% # Class of executed instruction. (Count)
system.cpu2.exec_context.thread_0.statExecutedInstType::SimdFloatAlu            0      0.00%     74.90% # Class of executed instruction. (Count)
system.cpu2.exec_context.thread_0.statExecutedInstType::SimdFloatCmp            0      0.00%     74.90% # Class of executed instruction. (Count)
system.cpu2.exec_context.thread_0.statExecutedInstType::SimdFloatCvt            0      0.00%     74.90% # Class of executed instruction. (Count)
system.cpu2.exec_context.thread_0.statExecutedInstType::SimdFloatDiv            0      0.00%     74.90% # Class of executed instruction. (Count)
system.cpu2.exec_context.thread_0.statExecutedInstType::SimdFloatMisc            0      0.00%     74.90% # Class of executed instruction. (Count)
system.cpu2.exec_context.thread_0.statExecutedInstType::SimdFloatMult            0      0.00%     74.90% # Class of executed instruction. (Count)
system.cpu2.exec_context.thread_0.statExecutedInstType::SimdFloatMultAcc            0      0.00%     74.90% # Class of executed instruction. (Count)
system.cpu2.exec_context.thread_0.statExecutedInstType::SimdFloatSqrt            0      0.00%     74.90% # Class of executed instruction. (Count)
system.cpu2.exec_context.thread_0.statExecutedInstType::SimdReduceAdd            0      0.00%     74.90% # Class of executed instruction. (Count)
system.cpu2.exec_context.thread_0.statExecutedInstType::SimdReduceAlu            0      0.00%     74.90% # Class of executed instruction. (Count)
system.cpu2.exec_context.thread_0.statExecutedInstType::SimdReduceCmp            0      0.00%     74.90% # Class of executed instruction. (Count)
system.cpu2.exec_context.thread_0.statExecutedInstType::SimdFloatReduceAdd            0      0.00%     74.90% # Class of executed instruction. (Count)
system.cpu2.exec_context.thread_0.statExecutedInstType::SimdFloatReduceCmp            0      0.00%     74.90% # Class of executed instruction. (Count)
system.cpu2.exec_context.thread_0.statExecutedInstType::SimdAes            0      0.00%     74.90% # Class of executed instruction. (Count)
system.cpu2.exec_context.thread_0.statExecutedInstType::SimdAesMix            0      0.00%     74.90% # Class of executed instruction. (Count)
system.cpu2.exec_context.thread_0.statExecutedInstType::SimdSha1Hash            0      0.00%     74.90% # Class of executed instruction. (Count)
system.cpu2.exec_context.thread_0.statExecutedInstType::SimdSha1Hash2            0      0.00%     74.90% # Class of executed instruction. (Count)
system.cpu2.exec_context.thread_0.statExecutedInstType::SimdSha256Hash            0      0.00%     74.90% # Class of executed instruction. (Count)
system.cpu2.exec_context.thread_0.statExecutedInstType::SimdSha256Hash2            0      0.00%     74.90% # Class of executed instruction. (Count)
system.cpu2.exec_context.thread_0.statExecutedInstType::SimdShaSigma2            0      0.00%     74.90% # Class of executed instruction. (Count)
system.cpu2.exec_context.thread_0.statExecutedInstType::SimdShaSigma3            0      0.00%     74.90% # Class of executed instruction. (Count)
system.cpu2.exec_context.thread_0.statExecutedInstType::SimdPredAlu            0      0.00%     74.90% # Class of executed instruction. (Count)
system.cpu2.exec_context.thread_0.statExecutedInstType::MemRead       495609     17.15%     92.05% # Class of executed instruction. (Count)
system.cpu2.exec_context.thread_0.statExecutedInstType::MemWrite       229644      7.95%    100.00% # Class of executed instruction. (Count)
system.cpu2.exec_context.thread_0.statExecutedInstType::FloatMemRead            0      0.00%    100.00% # Class of executed instruction. (Count)
system.cpu2.exec_context.thread_0.statExecutedInstType::FloatMemWrite           12      0.00%    100.00% # Class of executed instruction. (Count)
system.cpu2.exec_context.thread_0.statExecutedInstType::IprAccess            0      0.00%    100.00% # Class of executed instruction. (Count)
system.cpu2.exec_context.thread_0.statExecutedInstType::InstPrefetch            0      0.00%    100.00% # Class of executed instruction. (Count)
system.cpu2.exec_context.thread_0.statExecutedInstType::total      2889706                       # Class of executed instruction. (Count)
system.cpu2.mmu.dtb.readHits                        0                       # read hits (Count)
system.cpu2.mmu.dtb.readMisses                      0                       # read misses (Count)
system.cpu2.mmu.dtb.readAccesses                    0                       # read accesses (Count)
system.cpu2.mmu.dtb.writeHits                       0                       # write hits (Count)
system.cpu2.mmu.dtb.writeMisses                     0                       # write misses (Count)
system.cpu2.mmu.dtb.writeAccesses                   0                       # write accesses (Count)
system.cpu2.mmu.dtb.hits                            0                       # Total TLB (read and write) hits (Count)
system.cpu2.mmu.dtb.misses                          0                       # Total TLB (read and write) misses (Count)
system.cpu2.mmu.dtb.accesses                        0                       # Total TLB (read and write) accesses (Count)
system.cpu2.mmu.dtb.walker.power_state.pwrStateResidencyTicks::UNDEFINED  29098633000                       # Cumulative time (in ticks) in various power states (Tick)
system.cpu2.mmu.itb.readHits                        0                       # read hits (Count)
system.cpu2.mmu.itb.readMisses                      0                       # read misses (Count)
system.cpu2.mmu.itb.readAccesses                    0                       # read accesses (Count)
system.cpu2.mmu.itb.writeHits                       0                       # write hits (Count)
system.cpu2.mmu.itb.writeMisses                     0                       # write misses (Count)
system.cpu2.mmu.itb.writeAccesses                   0                       # write accesses (Count)
system.cpu2.mmu.itb.hits                            0                       # Total TLB (read and write) hits (Count)
system.cpu2.mmu.itb.misses                          0                       # Total TLB (read and write) misses (Count)
system.cpu2.mmu.itb.accesses                        0                       # Total TLB (read and write) accesses (Count)
system.cpu2.mmu.itb.walker.power_state.pwrStateResidencyTicks::UNDEFINED  29098633000                       # Cumulative time (in ticks) in various power states (Tick)
system.cpu2.power_state.numTransitions          65518                       # Number of power state transitions (Count)
system.cpu2.power_state.ticksClkGated::samples        32759                       # Distribution of time spent in the clock gated state (Tick)
system.cpu2.power_state.ticksClkGated::mean 523771.665802                       # Distribution of time spent in the clock gated state (Tick)
system.cpu2.power_state.ticksClkGated::stdev 46421.387049                       # Distribution of time spent in the clock gated state (Tick)
system.cpu2.power_state.ticksClkGated::1000-5e+10        32759    100.00%    100.00% # Distribution of time spent in the clock gated state (Tick)
system.cpu2.power_state.ticksClkGated::min_value       228000                       # Distribution of time spent in the clock gated state (Tick)
system.cpu2.power_state.ticksClkGated::max_value      1394000                       # Distribution of time spent in the clock gated state (Tick)
system.cpu2.power_state.ticksClkGated::total        32759                       # Distribution of time spent in the clock gated state (Tick)
system.cpu2.power_state.pwrStateResidencyTicks::ON  11940397000                       # Cumulative time (in ticks) in various power states (Tick)
system.cpu2.power_state.pwrStateResidencyTicks::CLK_GATED  17158236000                       # Cumulative time (in ticks) in various power states (Tick)
system.cpu2.thread_0.numInsts                       0                       # Number of Instructions committed (Count)
system.cpu2.thread_0.numOps                         0                       # Number of Ops committed (Count)
system.cpu2.thread_0.numMemRefs                     0                       # Number of Memory References (Count)
system.cpu3.numCycles                        29085352                       # Number of cpu cycles simulated (Cycle)
system.cpu3.numWorkItemsStarted                     0                       # Number of work items this cpu started (Count)
system.cpu3.numWorkItemsCompleted                   0                       # Number of work items this cpu completed (Count)
system.cpu3.exec_context.thread_0.numInsts      2786699                       # Number of instructions committed (Count)
system.cpu3.exec_context.thread_0.numOps      2819474                       # Number of ops (including micro ops) committed (Count)
system.cpu3.exec_context.thread_0.numIntAluAccesses      2690474                       # Number of integer alu accesses (Count)
system.cpu3.exec_context.thread_0.numFpAluAccesses           12                       # Number of float alu accesses (Count)
system.cpu3.exec_context.thread_0.numVecAluAccesses            0                       # Number of vector alu accesses (Count)
system.cpu3.exec_context.thread_0.numCallsReturns       327768                       # Number of times a function call or return occured (Count)
system.cpu3.exec_context.thread_0.numCondCtrlInsts       377348                       # Number of instructions that are conditional controls (Count)
system.cpu3.exec_context.thread_0.numIntInsts      2690474                       # Number of integer instructions (Count)
system.cpu3.exec_context.thread_0.numFpInsts           12                       # Number of float instructions (Count)
system.cpu3.exec_context.thread_0.numVecInsts            0                       # Number of vector instructions (Count)
system.cpu3.exec_context.thread_0.numIntRegReads      2427480                       # Number of times the integer registers were read (Count)
system.cpu3.exec_context.thread_0.numIntRegWrites      1919576                       # Number of times the integer registers were written (Count)
system.cpu3.exec_context.thread_0.numFpRegReads           12                       # Number of times the floating registers were read (Count)
system.cpu3.exec_context.thread_0.numFpRegWrites            0                       # Number of times the floating registers were written (Count)
system.cpu3.exec_context.thread_0.numVecRegReads            0                       # Number of times the vector registers were read (Count)
system.cpu3.exec_context.thread_0.numVecRegWrites            0                       # Number of times the vector registers were written (Count)
system.cpu3.exec_context.thread_0.numVecPredRegReads            0                       # Number of times the predicate registers were read (Count)
system.cpu3.exec_context.thread_0.numVecPredRegWrites            0                       # Number of times the predicate registers were written (Count)
system.cpu3.exec_context.thread_0.numMiscRegReads        65583                       # Number of times the Misc registers were read (Count)
system.cpu3.exec_context.thread_0.numMiscRegWrites            7                       # Number of times the Misc registers were written (Count)
system.cpu3.exec_context.thread_0.numMemRefs       722773                       # Number of memory refs (Count)
system.cpu3.exec_context.thread_0.numLoadInsts       427571                       # Number of load instructions (Count)
system.cpu3.exec_context.thread_0.numStoreInsts       295202                       # Number of store instructions (Count)
system.cpu3.exec_context.thread_0.numIdleCycles 21633270.781514                       # Number of idle cycles (Cycle)
system.cpu3.exec_context.thread_0.numBusyCycles 7452081.218486                       # Number of busy cycles (Cycle)
system.cpu3.exec_context.thread_0.notIdleFraction     0.256214                       # Percentage of non-idle cycles (Ratio)
system.cpu3.exec_context.thread_0.idleFraction     0.743786                       # Percentage of idle cycles (Ratio)
system.cpu3.exec_context.thread_0.numBranches       768572                       # Number of branches fetched (Count)
system.cpu3.exec_context.thread_0.statExecutedInstType::No_OpClass       131106      4.54%      4.54% # Class of executed instruction. (Count)
system.cpu3.exec_context.thread_0.statExecutedInstType::IntAlu      2031140     70.40%     74.95% # Class of executed instruction. (Count)
system.cpu3.exec_context.thread_0.statExecutedInstType::IntMult            0      0.00%     74.95% # Class of executed instruction. (Count)
system.cpu3.exec_context.thread_0.statExecutedInstType::IntDiv            2      0.00%     74.95% # Class of executed instruction. (Count)
system.cpu3.exec_context.thread_0.statExecutedInstType::FloatAdd            0      0.00%     74.95% # Class of executed instruction. (Count)
system.cpu3.exec_context.thread_0.statExecutedInstType::FloatCmp            0      0.00%     74.95% # Class of executed instruction. (Count)
system.cpu3.exec_context.thread_0.statExecutedInstType::FloatCvt            0      0.00%     74.95% # Class of executed instruction. (Count)
system.cpu3.exec_context.thread_0.statExecutedInstType::FloatMult            0      0.00%     74.95% # Class of executed instruction. (Count)
system.cpu3.exec_context.thread_0.statExecutedInstType::FloatMultAcc            0      0.00%     74.95% # Class of executed instruction. (Count)
system.cpu3.exec_context.thread_0.statExecutedInstType::FloatDiv            0      0.00%     74.95% # Class of executed instruction. (Count)
system.cpu3.exec_context.thread_0.statExecutedInstType::FloatMisc            0      0.00%     74.95% # Class of executed instruction. (Count)
system.cpu3.exec_context.thread_0.statExecutedInstType::FloatSqrt            0      0.00%     74.95% # Class of executed instruction. (Count)
system.cpu3.exec_context.thread_0.statExecutedInstType::SimdAdd            0      0.00%     74.95% # Class of executed instruction. (Count)
system.cpu3.exec_context.thread_0.statExecutedInstType::SimdAddAcc            0      0.00%     74.95% # Class of executed instruction. (Count)
system.cpu3.exec_context.thread_0.statExecutedInstType::SimdAlu            0      0.00%     74.95% # Class of executed instruction. (Count)
system.cpu3.exec_context.thread_0.statExecutedInstType::SimdCmp            0      0.00%     74.95% # Class of executed instruction. (Count)
system.cpu3.exec_context.thread_0.statExecutedInstType::SimdCvt            0      0.00%     74.95% # Class of executed instruction. (Count)
system.cpu3.exec_context.thread_0.statExecutedInstType::SimdMisc            0      0.00%     74.95% # Class of executed instruction. (Count)
system.cpu3.exec_context.thread_0.statExecutedInstType::SimdMult            0      0.00%     74.95% # Class of executed instruction. (Count)
system.cpu3.exec_context.thread_0.statExecutedInstType::SimdMultAcc            0      0.00%     74.95% # Class of executed instruction. (Count)
system.cpu3.exec_context.thread_0.statExecutedInstType::SimdShift            0      0.00%     74.95% # Class of executed instruction. (Count)
system.cpu3.exec_context.thread_0.statExecutedInstType::SimdShiftAcc            0      0.00%     74.95% # Class of executed instruction. (Count)
system.cpu3.exec_context.thread_0.statExecutedInstType::SimdDiv            0      0.00%     74.95% # Class of executed instruction. (Count)
system.cpu3.exec_context.thread_0.statExecutedInstType::SimdSqrt            0      0.00%     74.95% # Class of executed instruction. (Count)
system.cpu3.exec_context.thread_0.statExecutedInstType::SimdFloatAdd            0      0.00%     74.95% # Class of executed instruction. (Count)
system.cpu3.exec_context.thread_0.statExecutedInstType::SimdFloatAlu            0      0.00%     74.95% # Class of executed instruction. (Count)
[...]
system.ruby.network.routers8.throttle02.total_stall_cy            0                       # Total time spent blocked on any output link (Cycle)
system.ruby.network.routers8.throttle02.total_bw_sat_cy      1776392                       # Total time bandwidth was saturated on any output link (Cycle)
system.ruby.network.routers8.throttle02.avg_msg_wait_time     0.139609                       # Average time a message took to be forwarded (Ratio)
system.ruby.network.routers8.throttle02.avg_bandwidth         1.02                       # Average bandwidth (GB/s) (Ratio)
system.ruby.network.routers8.throttle02.avg_useful_bandwidth         0.91                       # Average usefull (only data) bandwidth (GB/s) (Ratio)
system.ruby.network.routers8.throttle02.msg_count.Data::2       220921                       (Unspecified)
system.ruby.network.routers8.throttle02.msg_count.Data::3       223177                       (Unspecified)
system.ruby.network.routers8.throttle02.msg_bytes.Data::2     15906312                       (Unspecified)
system.ruby.network.routers8.throttle02.msg_bytes.Data::3     16068744                       (Unspecified)
system.ruby.network.routers8.throttle03.acc_link_utilization 2402968.500000                       # Accumulated link utilization (Count)
system.ruby.network.routers8.throttle03.link_utilization     4.129006                       # Average link utilization (Ratio)
system.ruby.network.routers8.throttle03.total_msg_count       533993                       # Total number of messages forwarded by this switch (Count)
system.ruby.network.routers8.throttle03.total_msg_bytes     38447496                       # Total number of bytes forwarded by this switch (Byte)
system.ruby.network.routers8.throttle03.total_data_msg_bytes     34175552                       # Total number of data bytes forwarded by this switch (Byte)
system.ruby.network.routers8.throttle03.total_msg_wait_time       183500                       # Total time spend forwarding messages (Tick)
system.ruby.network.routers8.throttle03.total_stall_cy            0                       # Total time spent blocked on any output link (Cycle)
system.ruby.network.routers8.throttle03.total_bw_sat_cy      2135972                       # Total time bandwidth was saturated on any output link (Cycle)
system.ruby.network.routers8.throttle03.avg_msg_wait_time     0.343637                       # Average time a message took to be forwarded (Ratio)
system.ruby.network.routers8.throttle03.avg_bandwidth         1.23                       # Average bandwidth (GB/s) (Ratio)
system.ruby.network.routers8.throttle03.avg_useful_bandwidth         1.09                       # Average usefull (only data) bandwidth (GB/s) (Ratio)
system.ruby.network.routers8.throttle03.msg_count.Data::2       220955                       (Unspecified)
system.ruby.network.routers8.throttle03.msg_count.Data::3       313038                       (Unspecified)
system.ruby.network.routers8.throttle03.msg_bytes.Data::2     15908760                       (Unspecified)
system.ruby.network.routers8.throttle03.msg_bytes.Data::3     22538736                       (Unspecified)
system.ruby.network.routers8.throttle04.acc_link_utilization      6255918                       # Accumulated link utilization (Count)
system.ruby.network.routers8.throttle04.link_utilization    10.749505                       # Average link utilization (Ratio)
system.ruby.network.routers8.throttle04.total_msg_count      1390204                       # Total number of messages forwarded by this switch (Count)
system.ruby.network.routers8.throttle04.total_msg_bytes    100094688                       # Total number of bytes forwarded by this switch (Byte)
system.ruby.network.routers8.throttle04.total_data_msg_bytes     88973056                       # Total number of data bytes forwarded by this switch (Byte)
system.ruby.network.routers8.throttle04.total_msg_wait_time     73556500                       # Total time spend forwarding messages (Tick)
system.ruby.network.routers8.throttle04.total_stall_cy            0                       # Total time spent blocked on any output link (Cycle)
system.ruby.network.routers8.throttle04.total_bw_sat_cy      5560856                       # Total time bandwidth was saturated on any output link (Cycle)
system.ruby.network.routers8.throttle04.avg_msg_wait_time    52.910580                       # Average time a message took to be forwarded (Ratio)
system.ruby.network.routers8.throttle04.avg_bandwidth         3.20                       # Average bandwidth (GB/s) (Ratio)
system.ruby.network.routers8.throttle04.avg_useful_bandwidth         2.85                       # Average usefull (only data) bandwidth (GB/s) (Ratio)
system.ruby.network.routers8.throttle04.msg_count.Data::3       407175                       (Unspecified)
system.ruby.network.routers8.throttle04.msg_count.Data::4       445361                       (Unspecified)
system.ruby.network.routers8.throttle04.msg_count.Data::5       221159                       (Unspecified)
system.ruby.network.routers8.throttle04.msg_count.Data::6       316509                       (Unspecified)
system.ruby.network.routers8.throttle04.msg_bytes.Data::3     29316600                       (Unspecified)
system.ruby.network.routers8.throttle04.msg_bytes.Data::4     32065992                       (Unspecified)
system.ruby.network.routers8.throttle04.msg_bytes.Data::5     15923448                       (Unspecified)
system.ruby.network.routers8.throttle04.msg_bytes.Data::6     22788648                       (Unspecified)
system.ruby.network.routers8.throttle05.acc_link_utilization      6235227                       # Accumulated link utilization (Count)
system.ruby.network.routers8.throttle05.link_utilization    10.713952                       # Average link utilization (Ratio)
system.ruby.network.routers8.throttle05.total_msg_count      1385606                       # Total number of messages forwarded by this switch (Count)
system.ruby.network.routers8.throttle05.total_msg_bytes     99763632                       # Total number of bytes forwarded by this switch (Byte)
system.ruby.network.routers8.throttle05.total_data_msg_bytes     88678784                       # Total number of data bytes forwarded by this switch (Byte)
system.ruby.network.routers8.throttle05.total_msg_wait_time     73600000                       # Total time spend forwarding messages (Tick)
system.ruby.network.routers8.throttle05.total_stall_cy            0                       # Total time spent blocked on any output link (Cycle)
system.ruby.network.routers8.throttle05.total_bw_sat_cy      5542450                       # Total time bandwidth was saturated on any output link (Cycle)
system.ruby.network.routers8.throttle05.avg_msg_wait_time    53.117553                       # Average time a message took to be forwarded (Ratio)
system.ruby.network.routers8.throttle05.avg_bandwidth         3.19                       # Average bandwidth (GB/s) (Ratio)
system.ruby.network.routers8.throttle05.avg_useful_bandwidth         2.84                       # Average usefull (only data) bandwidth (GB/s) (Ratio)
system.ruby.network.routers8.throttle05.msg_count.Data::3       407040                       (Unspecified)
system.ruby.network.routers8.throttle05.msg_count.Data::4       442195                       (Unspecified)
system.ruby.network.routers8.throttle05.msg_count.Data::5       221043                       (Unspecified)
system.ruby.network.routers8.throttle05.msg_count.Data::6       315328                       (Unspecified)
system.ruby.network.routers8.throttle05.msg_bytes.Data::3     29306880                       (Unspecified)
system.ruby.network.routers8.throttle05.msg_bytes.Data::4     31838040                       (Unspecified)
system.ruby.network.routers8.throttle05.msg_bytes.Data::5     15915096                       (Unspecified)
system.ruby.network.routers8.throttle05.msg_bytes.Data::6     22703616                       (Unspecified)
system.ruby.network.routers8.throttle06.acc_link_utilization 4545283.500000                       # Accumulated link utilization (Count)
system.ruby.network.routers8.throttle06.link_utilization     7.810132                       # Average link utilization (Ratio)
system.ruby.network.routers8.throttle06.total_msg_count      1010063                       # Total number of messages forwarded by this switch (Count)
system.ruby.network.routers8.throttle06.total_msg_bytes     72724536                       # Total number of bytes forwarded by this switch (Byte)
system.ruby.network.routers8.throttle06.total_data_msg_bytes     64644032                       # Total number of data bytes forwarded by this switch (Byte)
system.ruby.network.routers8.throttle06.total_msg_wait_time        66000                       # Total time spend forwarding messages (Tick)
system.ruby.network.routers8.throttle06.total_stall_cy            0                       # Total time spent blocked on any output link (Cycle)
system.ruby.network.routers8.throttle06.total_bw_sat_cy      4040264                       # Total time bandwidth was saturated on any output link (Cycle)
system.ruby.network.routers8.throttle06.avg_msg_wait_time     0.065342                       # Average time a message took to be forwarded (Ratio)
system.ruby.network.routers8.throttle06.avg_bandwidth         2.33                       # Average bandwidth (GB/s) (Ratio)
system.ruby.network.routers8.throttle06.avg_useful_bandwidth         2.07                       # Average usefull (only data) bandwidth (GB/s) (Ratio)
system.ruby.network.routers8.throttle06.msg_count.Data::2       188371                       (Unspecified)
system.ruby.network.routers8.throttle06.msg_count.Data::3       189662                       (Unspecified)
system.ruby.network.routers8.throttle06.msg_count.Data::6       188371                       (Unspecified)
system.ruby.network.routers8.throttle06.msg_count.Data::7       443659                       (Unspecified)
system.ruby.network.routers8.throttle06.msg_bytes.Data::2     13562712                       (Unspecified)
system.ruby.network.routers8.throttle06.msg_bytes.Data::3     13655664                       (Unspecified)
system.ruby.network.routers8.throttle06.msg_bytes.Data::6     13562712                       (Unspecified)
system.ruby.network.routers8.throttle06.msg_bytes.Data::7     31943448                       (Unspecified)
system.ruby.network.routers8.throttle07.acc_link_utilization 1701148.500000                       # Accumulated link utilization (Count)
system.ruby.network.routers8.throttle07.link_utilization     2.923073                       # Average link utilization (Ratio)
system.ruby.network.routers8.throttle07.total_msg_count       378033                       # Total number of messages forwarded by this switch (Count)
system.ruby.network.routers8.throttle07.total_msg_bytes     27218376                       # Total number of bytes forwarded by this switch (Byte)
system.ruby.network.routers8.throttle07.total_data_msg_bytes     24194112                       # Total number of data bytes forwarded by this switch (Byte)
system.ruby.network.routers8.throttle07.total_msg_wait_time            0                       # Total time spend forwarding messages (Tick)
system.ruby.network.routers8.throttle07.total_stall_cy            0                       # Total time spent blocked on any output link (Cycle)
system.ruby.network.routers8.throttle07.total_bw_sat_cy      1512132                       # Total time bandwidth was saturated on any output link (Cycle)
system.ruby.network.routers8.throttle07.avg_msg_wait_time            0                       # Average time a message took to be forwarded (Ratio)
system.ruby.network.routers8.throttle07.avg_bandwidth         0.87                       # Average bandwidth (GB/s) (Ratio)
system.ruby.network.routers8.throttle07.avg_useful_bandwidth         0.77                       # Average usefull (only data) bandwidth (GB/s) (Ratio)
system.ruby.network.routers8.throttle07.msg_count.Data::4       378033                       (Unspecified)
system.ruby.network.routers8.throttle07.msg_bytes.Data::4     27218376                       (Unspecified)
system.ruby.power_state.pwrStateResidencyTicks::UNDEFINED  29098633000                       # Cumulative time (in ticks) in various power states (Tick)
system.ruby_am.power_state.pwrStateResidencyTicks::UNDEFINED  29098633000                       # Cumulative time (in ticks) in various power states (Tick)
system.sys_port_proxy.power_state.pwrStateResidencyTicks::UNDEFINED  29098633000                       # Cumulative time (in ticks) in various power states (Tick)
system.workload.inst.arm                            0                       # number of arm instructions executed (Count)
system.workload.inst.quiesce                        0                       # number of quiesce instructions executed (Count)
system.cpu0.active_message_ack_latency              0                       # active messages ACK latency (Unspecified)
system.cpu0.active_message_nack_latency             0                       # active messages NACK latency (Unspecified)
system.cpu0.appl_num_steal_failed                   0                       # number of failed steals (Unspecified)
system.cpu0.appl_num_steal_successful               0                       # number of successful steals (Unspecified)
system.cpu0.appl_steal_failed_cycles                0                       # cycles of failed steals (Unspecified)
system.cpu0.appl_steal_successful_cycles            0                       # cycles of successful steals (Unspecified)
system.cpu0.num_active_message_ack                  0                       # number of active messages ACK received (Unspecified)
system.cpu0.num_active_message_nack                 0                       # number of active messages NACK received (Unspecified)
system.cpu0.uli_req_received                        0                       # number of uli request received (Unspecified)
system.cpu0.uli_req_sent                            1                       # number of uli request sent (Unspecified)
system.cpu0.uli_resp_ack_received                   0                       # number of uli ack response received (Unspecified)
system.cpu0.uli_resp_ack_sent                       0                       # number of uli ack response sent (Unspecified)
system.cpu0.uli_resp_nack_received                  0                       # number of uli nack response received (Unspecified)
system.cpu0.uli_resp_nack_sent                      0                       # number of uli nack response sent (Unspecified)
system.cpu1.active_message_ack_latency              0                       # active messages ACK latency (Unspecified)
system.cpu1.active_message_nack_latency             0                       # active messages NACK latency (Unspecified)
system.cpu1.appl_num_steal_failed                   0                       # number of failed steals (Unspecified)
system.cpu1.appl_num_steal_successful               0                       # number of successful steals (Unspecified)
system.cpu1.appl_steal_failed_cycles                0                       # cycles of failed steals (Unspecified)
system.cpu1.appl_steal_successful_cycles            0                       # cycles of successful steals (Unspecified)
system.cpu1.num_active_message_ack                  0                       # number of active messages ACK received (Unspecified)
system.cpu1.num_active_message_nack                 0                       # number of active messages NACK received (Unspecified)
system.cpu1.uli_req_received                        1                       # number of uli request received (Unspecified)
system.cpu1.uli_req_sent                            0                       # number of uli request sent (Unspecified)
system.cpu1.uli_resp_ack_received                   0                       # number of uli ack response received (Unspecified)
system.cpu1.uli_resp_ack_sent                       0                       # number of uli ack response sent (Unspecified)
system.cpu1.uli_resp_nack_received                  0                       # number of uli nack response received (Unspecified)
system.cpu1.uli_resp_nack_sent                      0                       # number of uli nack response sent (Unspecified)
system.cpu2.active_message_ack_latency              0                       # active messages ACK latency (Unspecified)
system.cpu2.active_message_nack_latency             0                       # active messages NACK latency (Unspecified)
system.cpu2.appl_num_steal_failed                   0                       # number of failed steals (Unspecified)
system.cpu2.appl_num_steal_successful               0                       # number of successful steals (Unspecified)
system.cpu2.appl_steal_failed_cycles                0                       # cycles of failed steals (Unspecified)
system.cpu2.appl_steal_successful_cycles            0                       # cycles of successful steals (Unspecified)
system.cpu2.num_active_message_ack                  0                       # number of active messages ACK received (Unspecified)
system.cpu2.num_active_message_nack                 0                       # number of active messages NACK received (Unspecified)
system.cpu2.uli_req_received                        0                       # number of uli request received (Unspecified)
system.cpu2.uli_req_sent                            1                       # number of uli request sent (Unspecified)
system.cpu2.uli_resp_ack_received                   0                       # number of uli ack response received (Unspecified)
system.cpu2.uli_resp_ack_sent                       0                       # number of uli ack response sent (Unspecified)
system.cpu2.uli_resp_nack_received                  0                       # number of uli nack response received (Unspecified)
system.cpu2.uli_resp_nack_sent                      0                       # number of uli nack response sent (Unspecified)
system.cpu3.active_message_ack_latency              0                       # active messages ACK latency (Unspecified)
system.cpu3.active_message_nack_latency             0                       # active messages NACK latency (Unspecified)
system.cpu3.appl_num_steal_failed                   0                       # number of failed steals (Unspecified)
system.cpu3.appl_num_steal_successful               0                       # number of successful steals (Unspecified)
system.cpu3.appl_steal_failed_cycles                0                       # cycles of failed steals (Unspecified)
system.cpu3.appl_steal_successful_cycles            0                       # cycles of successful steals (Unspecified)
system.cpu3.num_active_message_ack                  0                       # number of active messages ACK received (Unspecified)
system.cpu3.num_active_message_nack                 0                       # number of active messages NACK received (Unspecified)
system.cpu3.uli_req_received                        1                       # number of uli request received (Unspecified)
system.cpu3.uli_req_sent                            0                       # number of uli request sent (Unspecified)
system.cpu3.uli_resp_ack_received                   0                       # number of uli ack response received (Unspecified)
system.cpu3.uli_resp_ack_sent                       0                       # number of uli ack response sent (Unspecified)
system.cpu3.uli_resp_nack_received                  0                       # number of uli nack response received (Unspecified)
system.cpu3.uli_resp_nack_sent                      0                       # number of uli nack response sent (Unspecified)

---------- End Simulation Statistics   ----------
