
---------- Begin Simulation Statistics ----------
simSeconds                                   2.474487                       # Number of seconds simulated (Second)
simTicks                                 2474487447000                       # Number of ticks simulated (Tick)
finalTick                                2474487447000                       # Number of ticks from beginning of simulation (restored from checkpoints and never reset) (Tick)
simFreq                                  1000000000000                       # The number of ticks per simulated second ((Tick/Second))
hostSeconds                                   3282.28                       # Real time elapsed on the host (Second)
hostTickRate                                753892750                       # The number of ticks simulated per host second (ticks/s) ((Tick/Second))
hostMemory                                    1968992                       # Number of bytes of host memory used (Byte)
simInsts                                    712319017                       # Number of instructions simulated (Count)
simOps                                      720707707                       # Number of ops (including micro ops) simulated (Count)
hostInstRate                                   217020                       # Simulator instruction rate (inst/s) ((Count/Second))
hostOpRate                                     219575                       # Simulator op (including micro ops) rate (op/s) ((Count/Second))
system.adapters0.cpuReqBuffer.m_msg_count            1                       # Number of messages passed the buffer (Count)
system.adapters0.cpuReqBuffer.m_buf_msgs     0.000000                       # Average number of messages in buffer ((Count/Tick))
system.adapters0.cpuReqBuffer.m_occupancy     0.000000                       # Average occupancy of buffer capacity ((Ratio/Tick))
system.adapters0.power_state.pwrStateResidencyTicks::UNDEFINED 2474487447000                       # Cumulative time (in ticks) in various power states (Tick)
system.adapters1.networkReqBuffer.m_msg_count            1                       # Number of messages passed the buffer (Count)
system.adapters1.networkReqBuffer.m_buf_msgs     0.000000                       # Average number of messages in buffer ((Count/Tick))
system.adapters1.networkReqBuffer.m_occupancy     0.000000                       # Average occupancy of buffer capacity ((Ratio/Tick))
system.adapters1.power_state.pwrStateResidencyTicks::UNDEFINED 2474487447000                       # Cumulative time (in ticks) in various power states (Tick)
system.adapters2.cpuReqBuffer.m_msg_count            1                       # Number of messages passed the buffer (Count)
system.adapters2.cpuReqBuffer.m_buf_msgs     0.000000                       # Average number of messages in buffer ((Count/Tick))
system.adapters2.cpuReqBuffer.m_occupancy     0.000000                       # Average occupancy of buffer capacity ((Ratio/Tick))
system.adapters2.power_state.pwrStateResidencyTicks::UNDEFINED 2474487447000                       # Cumulative time (in ticks) in various power states (Tick)
system.adapters3.networkReqBuffer.m_msg_count            1                       # Number of messages passed the buffer (Count)
system.adapters3.networkReqBuffer.m_buf_msgs     0.000000                       # Average number of messages in buffer ((Count/Tick))
system.adapters3.networkReqBuffer.m_occupancy     0.000000                       # Average occupancy of buffer capacity ((Ratio/Tick))
system.adapters3.power_state.pwrStateResidencyTicks::UNDEFINED 2474487447000                       # Cumulative time (in ticks) in various power states (Tick)
system.am_network.msg_count.Control                 4                       (Unspecified)
system.am_network.msg_byte.Control                 32                       (Unspecified)
system.am_network.int_links0.buffers1.m_msg_count            1                       # Number of messages passed the buffer (Count)
system.am_network.int_links0.buffers1.m_buf_msgs     0.000000                       # Average number of messages in buffer ((Count/Tick))
system.am_network.int_links2.buffers1.m_msg_count            1                       # Number of messages passed the buffer (Count)
system.am_network.int_links2.buffers1.m_buf_msgs     0.000000                       # Average number of messages in buffer ((Count/Tick))
system.am_network.power_state.pwrStateResidencyTicks::UNDEFINED 2474487447000                       # Cumulative time (in ticks) in various power states (Tick)
system.am_network.routers0.percent_links_utilized     0.000000                       (Unspecified)
system.am_network.routers0.msg_count.Control::1            1                       (Unspecified)
system.am_network.routers0.msg_bytes.Control::1            8                       (Unspecified)
system.am_network.routers0.port_buffers3.m_msg_count            1                       # Number of messages passed the buffer (Count)
system.am_network.routers0.port_buffers3.m_buf_msgs     0.000000                       # Average number of messages in buffer ((Count/Tick))
system.am_network.routers0.port_buffers3.m_occupancy     0.000000                       # Average occupancy of buffer capacity ((Ratio/Tick))
system.am_network.routers0.power_state.pwrStateResidencyTicks::UNDEFINED 2474487447000                       # Cumulative time (in ticks) in various power states (Tick)
system.am_network.routers0.throttle00.acc_link_utilization            0                       # Accumulated link utilization (Count)
system.am_network.routers0.throttle00.link_utilization            0                       # Average link utilization (Ratio)
system.am_network.routers0.throttle00.total_msg_count            0                       # Total number of messages forwarded by this switch (Count)
system.am_network.routers0.throttle00.total_msg_bytes            0                       # Total number of bytes forwarded by this switch (Byte)
system.am_network.routers0.throttle00.total_data_msg_bytes            0                       # Total number of data bytes forwarded by this switch (Byte)
system.am_network.routers0.throttle00.total_msg_wait_time            0                       # Total time spend forwarding messages (Tick)
system.am_network.routers0.throttle00.total_stall_cy            0                       # Total time spent blocked on any output link (Cycle)
system.am_network.routers0.throttle00.total_bw_sat_cy            0                       # Total time bandwidth was saturated on any output link (Cycle)
system.am_network.routers0.throttle00.avg_msg_wait_time          nan                       # Average time a message took to be forwarded (Ratio)
system.am_network.routers0.throttle00.avg_bandwidth         0.00                       # Average bandwidth (GB/s) (Ratio)
system.am_network.routers0.throttle00.avg_useful_bandwidth         0.00                       # Average usefull (only data) bandwidth (GB/s) (Ratio)
system.am_network.routers0.throttle01.acc_link_utilization     0.500000                       # Accumulated link utilization (Count)
system.am_network.routers0.throttle01.link_utilization     0.000000                       # Average link utilization (Ratio)
system.am_network.routers0.throttle01.total_msg_count            1                       # Total number of messages forwarded by this switch (Count)
system.am_network.routers0.throttle01.total_msg_bytes            8                       # Total number of bytes forwarded by this switch (Byte)
system.am_network.routers0.throttle01.total_data_msg_bytes            0                       # Total number of data bytes forwarded by this switch (Byte)
system.am_network.routers0.throttle01.total_msg_wait_time            0                       # Total time spend forwarding messages (Tick)
system.am_network.routers0.throttle01.total_stall_cy            0                       # Total time spent blocked on any output link (Cycle)
system.am_network.routers0.throttle01.total_bw_sat_cy            0                       # Total time bandwidth was saturated on any output link (Cycle)
system.am_network.routers0.throttle01.avg_msg_wait_time            0                       # Average time a message took to be forwarded (Ratio)
system.am_network.routers0.throttle01.avg_bandwidth         0.00                       # Average bandwidth (GB/s) (Ratio)
system.am_network.routers0.throttle01.avg_useful_bandwidth         0.00                       # Average usefull (only data) bandwidth (GB/s) (Ratio)
system.am_network.routers0.throttle01.msg_count.Control::1            1                       (Unspecified)
system.am_network.routers0.throttle01.msg_bytes.Control::1            8                       (Unspecified)
system.am_network.routers1.percent_links_utilized     0.000000                       (Unspecified)
system.am_network.routers1.msg_count.Control::1            1                       (Unspecified)
system.am_network.routers1.msg_bytes.Control::1            8                       (Unspecified)
system.am_network.routers1.port_buffers1.m_msg_count            1                       # Number of messages passed the buffer (Count)
system.am_network.routers1.port_buffers1.m_buf_msgs     0.000000                       # Average number of messages in buffer ((Count/Tick))
system.am_network.routers1.port_buffers1.m_occupancy     0.000000                       # Average occupancy of buffer capacity ((Ratio/Tick))
system.am_network.routers1.power_state.pwrStateResidencyTicks::UNDEFINED 2474487447000                       # Cumulative time (in ticks) in various power states (Tick)
system.am_network.routers1.throttle00.acc_link_utilization     0.500000                       # Accumulated link utilization (Count)
system.am_network.routers1.throttle00.link_utilization     0.000000                       # Average link utilization (Ratio)
system.am_network.routers1.throttle00.total_msg_count            1                       # Total number of messages forwarded by this switch (Count)
system.am_network.routers1.throttle00.total_msg_bytes            8                       # Total number of bytes forwarded by this switch (Byte)
system.am_network.routers1.throttle00.total_data_msg_bytes            0                       # Total number of data bytes forwarded by this switch (Byte)
system.am_network.routers1.throttle00.total_msg_wait_time            0                       # Total time spend forwarding messages (Tick)
system.am_network.routers1.throttle00.total_stall_cy            0                       # Total time spent blocked on any output link (Cycle)
system.am_network.routers1.throttle00.total_bw_sat_cy            0                       # Total time bandwidth was saturated on any output link (Cycle)
system.am_network.routers1.throttle00.avg_msg_wait_time            0                       # Average time a message took to be forwarded (Ratio)
system.am_network.routers1.throttle00.avg_bandwidth         0.00                       # Average bandwidth (GB/s) (Ratio)
system.am_network.routers1.throttle00.avg_useful_bandwidth         0.00                       # Average usefull (only data) bandwidth (GB/s) (Ratio)
system.am_network.routers1.throttle00.msg_count.Control::1            1                       (Unspecified)
system.am_network.routers1.throttle00.msg_bytes.Control::1            8                       (Unspecified)
system.am_network.routers1.throttle01.acc_link_utilization            0                       # Accumulated link utilization (Count)
system.am_network.routers1.throttle01.link_utilization            0                       # Average link utilization (Ratio)
system.am_network.routers1.throttle01.total_msg_count            0                       # Total number of messages forwarded by this switch (Count)
system.am_network.routers1.throttle01.total_msg_bytes            0                       # Total number of bytes forwarded by this switch (Byte)
system.am_network.routers1.throttle01.total_data_msg_bytes            0                       # Total number of data bytes forwarded by this switch (Byte)
system.am_network.routers1.throttle01.total_msg_wait_time            0                       # Total time spend forwarding messages (Tick)
system.am_network.routers1.throttle01.total_stall_cy            0                       # Total time spent blocked on any output link (Cycle)
system.am_network.routers1.throttle01.total_bw_sat_cy            0                       # Total time bandwidth was saturated on any output link (Cycle)
system.am_network.routers1.throttle01.avg_msg_wait_time          nan                       # Average time a message took to be forwarded (Ratio)
system.am_network.routers1.throttle01.avg_bandwidth         0.00                       # Average bandwidth (GB/s) (Ratio)
system.am_network.routers1.throttle01.avg_useful_bandwidth         0.00                       # Average usefull (only data) bandwidth (GB/s) (Ratio)
system.am_network.routers1.throttle02.acc_link_utilization            0                       # Accumulated link utilization (Count)
system.am_network.routers1.throttle02.link_utilization            0                       # Average link utilization (Ratio)
system.am_network.routers1.throttle02.total_msg_count            0                       # Total number of messages forwarded by this switch (Count)
system.am_network.routers1.throttle02.total_msg_bytes            0                       # Total number of bytes forwarded by this switch (Byte)
system.am_network.routers1.throttle02.total_data_msg_bytes            0                       # Total number of data bytes forwarded by this switch (Byte)
system.am_network.routers1.throttle02.total_msg_wait_time            0                       # Total time spend forwarding messages (Tick)
system.am_network.routers1.throttle02.total_stall_cy            0                       # Total time spent blocked on any output link (Cycle)
system.am_network.routers1.throttle02.total_bw_sat_cy            0                       # Total time bandwidth was saturated on any output link (Cycle)
system.am_network.routers1.throttle02.avg_msg_wait_time          nan                       # Average time a message took to be forwarded (Ratio)
system.am_network.routers1.throttle02.avg_bandwidth         0.00                       # Average bandwidth (GB/s) (Ratio)
system.am_network.routers1.throttle02.avg_useful_bandwidth         0.00                       # Average usefull (only data) bandwidth (GB/s) (Ratio)
system.am_network.routers2.percent_links_utilized     0.000000                       (Unspecified)
system.am_network.routers2.msg_count.Control::1            1                       (Unspecified)
system.am_network.routers2.msg_bytes.Control::1            8                       (Unspecified)
system.am_network.routers2.port_buffers5.m_msg_count            1                       # Number of messages passed the buffer (Count)
system.am_network.routers2.port_buffers5.m_buf_msgs     0.000000                       # Average number of messages in buffer ((Count/Tick))
system.am_network.routers2.port_buffers5.m_occupancy     0.000000                       # Average occupancy of buffer capacity ((Ratio/Tick))
system.am_network.routers2.power_state.pwrStateResidencyTicks::UNDEFINED 2474487447000                       # Cumulative time (in ticks) in various power states (Tick)
system.am_network.routers2.throttle00.acc_link_utilization            0                       # Accumulated link utilization (Count)
system.am_network.routers2.throttle00.link_utilization            0                       # Average link utilization (Ratio)
system.am_network.routers2.throttle00.total_msg_count            0                       # Total number of messages forwarded by this switch (Count)
system.am_network.routers2.throttle00.total_msg_bytes            0                       # Total number of bytes forwarded by this switch (Byte)
system.am_network.routers2.throttle00.total_data_msg_bytes            0                       # Total number of data bytes forwarded by this switch (Byte)
system.am_network.routers2.throttle00.total_msg_wait_time            0                       # Total time spend forwarding messages (Tick)
system.am_network.routers2.throttle00.total_stall_cy            0                       # Total time spent blocked on any output link (Cycle)
system.am_network.routers2.throttle00.total_bw_sat_cy            0                       # Total time bandwidth was saturated on any output link (Cycle)
system.am_network.routers2.throttle00.avg_msg_wait_time          nan                       # Average time a message took to be forwarded (Ratio)
system.am_network.routers2.throttle00.avg_bandwidth         0.00                       # Average bandwidth (GB/s) (Ratio)
system.am_network.routers2.throttle00.avg_useful_bandwidth         0.00                       # Average usefull (only data) bandwidth (GB/s) (Ratio)
system.am_network.routers2.throttle01.acc_link_utilization            0                       # Accumulated link utilization (Count)
system.am_network.routers2.throttle01.link_utilization            0                       # Average link utilization (Ratio)
system.am_network.routers2.throttle01.total_msg_count            0                       # Total number of messages forwarded by this switch (Count)
system.am_network.routers2.throttle01.total_msg_bytes            0                       # Total number of bytes forwarded by this switch (Byte)
system.am_network.routers2.throttle01.total_data_msg_bytes            0                       # Total number of data bytes forwarded by this switch (Byte)
system.am_network.routers2.throttle01.total_msg_wait_time            0                       # Total time spend forwarding messages (Tick)
system.am_network.routers2.throttle01.total_stall_cy            0                       # Total time spent blocked on any output link (Cycle)
system.am_network.routers2.throttle01.total_bw_sat_cy            0                       # Total time bandwidth was saturated on any output link (Cycle)
system.am_network.routers2.throttle01.avg_msg_wait_time          nan                       # Average time a message took to be forwarded (Ratio)
system.am_network.routers2.throttle01.avg_bandwidth         0.00                       # Average bandwidth (GB/s) (Ratio)
system.am_network.routers2.throttle01.avg_useful_bandwidth         0.00                       # Average usefull (only data) bandwidth (GB/s) (Ratio)
system.am_network.routers2.throttle02.acc_link_utilization     0.500000                       # Accumulated link utilization (Count)
system.am_network.routers2.throttle02.link_utilization     0.000000                       # Average link utilization (Ratio)
system.am_network.routers2.throttle02.total_msg_count            1                       # Total number of messages forwarded by this switch (Count)
system.am_network.routers2.throttle02.total_msg_bytes            8                       # Total number of bytes forwarded by this switch (Byte)
system.am_network.routers2.throttle02.total_data_msg_bytes            0                       # Total number of data bytes forwarded by this switch (Byte)
system.am_network.routers2.throttle02.total_msg_wait_time            0                       # Total time spend forwarding messages (Tick)
system.am_network.routers2.throttle02.total_stall_cy            0                       # Total time spent blocked on any output link (Cycle)
system.am_network.routers2.throttle02.total_bw_sat_cy            0                       # Total time bandwidth was saturated on any output link (Cycle)
system.am_network.routers2.throttle02.avg_msg_wait_time            0                       # Average time a message took to be forwarded (Ratio)
system.am_network.routers2.throttle02.avg_bandwidth         0.00                       # Average bandwidth (GB/s) (Ratio)
system.am_network.routers2.throttle02.avg_useful_bandwidth         0.00                       # Average usefull (only data) bandwidth (GB/s) (Ratio)
system.am_network.routers2.throttle02.msg_count.Control::1            1                       (Unspecified)
system.am_network.routers2.throttle02.msg_bytes.Control::1            8                       (Unspecified)
system.am_network.routers3.percent_links_utilized     0.000000                       (Unspecified)
system.am_network.routers3.msg_count.Control::1            1                       (Unspecified)
system.am_network.routers3.msg_bytes.Control::1            8                       (Unspecified)
system.am_network.routers3.port_buffers1.m_msg_count            1                       # Number of messages passed the buffer (Count)
system.am_network.routers3.port_buffers1.m_buf_msgs     0.000000                       # Average number of messages in buffer ((Count/Tick))
system.am_network.routers3.port_buffers1.m_occupancy     0.000000                       # Average occupancy of buffer capacity ((Ratio/Tick))
system.am_network.routers3.power_state.pwrStateResidencyTicks::UNDEFINED 2474487447000                       # Cumulative time (in ticks) in various power states (Tick)
system.am_network.routers3.throttle00.acc_link_utilization     0.500000                       # Accumulated link utilization (Count)
system.am_network.routers3.throttle00.link_utilization     0.000000                       # Average link utilization (Ratio)
system.am_network.routers3.throttle00.total_msg_count            1                       # Total number of messages forwarded by this switch (Count)
system.am_network.routers3.throttle00.total_msg_bytes            8                       # Total number of bytes forwarded by this switch (Byte)
system.am_network.routers3.throttle00.total_data_msg_bytes            0                       # Total number of data bytes forwarded by this switch (Byte)
system.am_network.routers3.throttle00.total_msg_wait_time            0                       # Total time spend forwarding messages (Tick)
system.am_network.routers3.throttle00.total_stall_cy            0                       # Total time spent blocked on any output link (Cycle)
system.am_network.routers3.throttle00.total_bw_sat_cy            0                       # Total time bandwidth was saturated on any output link (Cycle)
system.am_network.routers3.throttle00.avg_msg_wait_time            0                       # Average time a message took to be forwarded (Ratio)
system.am_network.routers3.throttle00.avg_bandwidth         0.00                       # Average bandwidth (GB/s) (Ratio)
system.am_network.routers3.throttle00.avg_useful_bandwidth         0.00                       # Average usefull (only data) bandwidth (GB/s) (Ratio)
system.am_network.routers3.throttle00.msg_count.Control::1            1                       (Unspecified)
system.am_network.routers3.throttle00.msg_bytes.Control::1            8                       (Unspecified)
system.am_network.routers3.throttle01.acc_link_utilization            0                       # Accumulated link utilization (Count)
system.am_network.routers3.throttle01.link_utilization            0                       # Average link utilization (Ratio)
system.am_network.routers3.throttle01.total_msg_count            0                       # Total number of messages forwarded by this switch (Count)
system.am_network.routers3.throttle01.total_msg_bytes            0                       # Total number of bytes forwarded by this switch (Byte)
system.am_network.routers3.throttle01.total_data_msg_bytes            0                       # Total number of data bytes forwarded by this switch (Byte)
system.am_network.routers3.throttle01.total_msg_wait_time            0                       # Total time spend forwarding messages (Tick)
system.am_network.routers3.throttle01.total_stall_cy            0                       # Total time spent blocked on any output link (Cycle)
system.am_network.routers3.throttle01.total_bw_sat_cy            0                       # Total time bandwidth was saturated on any output link (Cycle)
system.am_network.routers3.throttle01.avg_msg_wait_time          nan                       # Average time a message took to be forwarded (Ratio)
system.am_network.routers3.throttle01.avg_bandwidth         0.00                       # Average bandwidth (GB/s) (Ratio)
system.am_network.routers3.throttle01.avg_useful_bandwidth         0.00                       # Average usefull (only data) bandwidth (GB/s) (Ratio)
system.clk_domain.clock                          1000                       # Clock period in ticks (Tick)
system.clk_domain.voltage_domain.voltage            1                       # Voltage in Volts (Volt)
system.cpu0.numCycles                      2474487447                       # Number of cpu cycles simulated (Cycle)
system.cpu0.numWorkItemsStarted                     0                       # Number of work items this cpu started (Count)
system.cpu0.numWorkItemsCompleted                   0                       # Number of work items this cpu completed (Count)
system.cpu0.exec_context.thread_0.numInsts    178121635                       # Number of instructions committed (Count)
system.cpu0.exec_context.thread_0.numOps    180218844                       # Number of ops (including micro ops) committed (Count)
system.cpu0.exec_context.thread_0.numIntAluAccesses    171965055                       # Number of integer alu accesses (Count)
system.cpu0.exec_context.thread_0.numFpAluAccesses           12                       # Number of float alu accesses (Count)
system.cpu0.exec_context.thread_0.numVecAluAccesses            0                       # Number of vector alu accesses (Count)
system.cpu0.exec_context.thread_0.numCallsReturns     20974343                       # Number of times a function call or return occured (Count)
system.cpu0.exec_context.thread_0.numCondCtrlInsts     24061562                       # Number of instructions that are conditional controls (Count)
system.cpu0.exec_context.thread_0.numIntInsts    171965055                       # Number of integer instructions (Count)
system.cpu0.exec_context.thread_0.numFpInsts           12                       # Number of float instructions (Count)
system.cpu0.exec_context.thread_0.numVecInsts            0                       # Number of vector instructions (Count)
system.cpu0.exec_context.thread_0.numIntRegReads    155130727                       # Number of times the integer registers were read (Count)
system.cpu0.exec_context.thread_0.numIntRegWrites    122726589                       # Number of times the integer registers were written (Count)
system.cpu0.exec_context.thread_0.numFpRegReads           12                       # Number of times the floating registers were read (Count)
system.cpu0.exec_context.thread_0.numFpRegWrites            0                       # Number of times the floating registers were written (Count)
system.cpu0.exec_context.thread_0.numVecRegReads            0                       # Number of times the vector registers were read (Count)
system.cpu0.exec_context.thread_0.numVecRegWrites            0                       # Number of times the vector registers were written (Count)
system.cpu0.exec_context.thread_0.numVecPredRegReads            0                       # Number of times the predicate registers were read (Count)
system.cpu0.exec_context.thread_0.numVecPredRegWrites            0                       # Number of times the predicate registers were written (Count)
system.cpu0.exec_context.thread_0.numMiscRegReads      4194382                       # Number of times the Misc registers were read (Count)
system.cpu0.exec_context.thread_0.numMiscRegWrites            7                       # Number of times the Misc registers were written (Count)
system.cpu0.exec_context.thread_0.numMemRefs     46161599                       # Number of memory refs (Count)
system.cpu0.exec_context.thread_0.numLoadInsts     27277654                       # Number of load instructions (Count)
system.cpu0.exec_context.thread_0.numStoreInsts     18883945                       # Number of store instructions (Count)
system.cpu0.exec_context.thread_0.numIdleCycles 1683715026.000319                       # Number of idle cycles (Cycle)
system.cpu0.exec_context.thread_0.numBusyCycles 790772420.999680                       # Number of busy cycles (Cycle)
system.cpu0.exec_context.thread_0.notIdleFraction     0.319570                       # Percentage of non-idle cycles (Ratio)
system.cpu0.exec_context.thread_0.idleFraction     0.680430                       # Percentage of idle cycles (Ratio)
system.cpu0.exec_context.thread_0.numBranches     49095434                       # Number of branches fetched (Count)
system.cpu0.exec_context.thread_0.statExecutedInstType::No_OpClass      8388814      4.55%      4.55% # Class of executed instruction. (Count)
system.cpu0.exec_context.thread_0.statExecutedInstType::IntAlu    129862754     70.42%     74.97% # Class of executed instruction. (Count)
system.cpu0.exec_context.thread_0.statExecutedInstType::IntMult           19      0.00%     74.97% # Class of executed instruction. (Count)
system.cpu0.exec_context.thread_0.statExecutedInstType::IntDiv            9      0.00%     74.97% # Class of executed instruction. (Count)
system.cpu0.exec_context.thread_0.statExecutedInstType::FloatAdd            0      0.00%     74.97% # Class of executed instruction. (Count)
system.cpu0.exec_context.thread_0.statExecutedInstType::FloatCmp            0      0.00%     74.97% # Class of executed instruction. (Count)
system.cpu0.exec_context.thread_0.statExecutedInstType::FloatCvt            0      0.00%     74.97% # Class of executed instruction. (Count)
system.cpu0.exec_context.thread_0.statExecutedInstType::FloatMult            0      0.00%     74.97% # Class of executed instruction. (Count)
system.cpu0.exec_context.thread_0.statExecutedInstType::FloatMultAcc            0      0.00%     74.97% # Class of executed instruction. (Count)
system.cpu0.exec_context.thread_0.statExecutedInstType::FloatDiv            0      0.00%     74.97% # Class of executed instruction. (Count)
system.cpu0.exec_context.thread_0.statExecutedInstType::FloatMisc            0      0.00%     74.97% # Class of executed instruction. (Count)
system.cpu0.exec_context.thread_0.statExecutedInstType::FloatSqrt            0      0.00%     74.97% # Class of executed instruction. (Count)
system.cpu0.exec_context.thread_0.statExecutedInstType::SimdAdd            0      0.00%     74.97% # Class of executed instruction. (Count)
system.cpu0.exec_context.thread_0.statExecutedInstType::SimdAddAcc            0      0.00%     74.97% # Class of executed instruction. (Count)
system.cpu0.exec_context.thread_0.statExecutedInstType::SimdAlu            0      0.00%     74.97% # Class of executed instruction. (Count)
system.cpu0.exec_context.thread_0.statExecutedInstType::SimdCmp            0      0.00%     74.97% # Class of executed instruction. (Count)
system.cpu0.exec_context.thread_0.statExecutedInstType::SimdCvt            0      0.00%     74.97% # Class of executed instruction. (Count)
system.cpu0.exec_context.thread_0.statExecutedInstType::SimdMisc            0      0.00%     74.97% # Class of executed instruction. (Count)
system.cpu0.exec_context.thread_0.statExecutedInstType::SimdMult            0      0.00%     74.97% # Class of executed instruction. (Count)
system.cpu0.exec_context.thread_0.statExecutedInstType::SimdMultAcc            0      0.00%     74.97% # Class of executed instruction. (Count)
system.cpu0.exec_context.thread_0.statExecutedInstType::SimdShift            0      0.00%     74.97% # Class of executed instruction. (Count)
system.cpu0.exec_context.thread_0.statExecutedInstType::SimdShiftAcc            0      0.00%     74.97% # Class of executed instruction. (Count)
system.cpu0.exec_context.thread_0.statExecutedInstType::SimdDiv            0      0.00%     74.97% # Class of executed instruction. (Count)
system.cpu0.exec_context.thread_0.statExecutedInstType::SimdSqrt            0      0.00%     74.97% # Class of executed instruction. (Count)
system.cpu0.exec_context.thread_0.statExecutedInstType::SimdFloatAdd            0      0.00%     74.97% # Class of executed instruction. (Count)
system.cpu0.exec_context.thread_0.statExecutedInstType::SimdFloatAlu            0      0.00%     74.97% # Class of executed instruction. (Count)
system.cpu0.exec_context.thread_0.statExecutedInstType::SimdFloatCmp            0      0.00%     74.97% # Class of executed instruction. (Count)
system.cpu0.exec_context.thread_0.statExecutedInstType::SimdFloatCvt            0      0.00%     74.97% # Class of executed instruction. (Count)
system.cpu0.exec_context.thread_0.statExecutedInstType::SimdFloatDiv            0      0.00%     74.97% # Class of executed instruction. (Count)
system.cpu0.exec_context.thread_0.statExecutedInstType::SimdFloatMisc            0      0.00%     74.97% # Class of executed instruction. (Count)
system.cpu0.exec_context.thread_0.statExecutedInstType::SimdFloatMult            0      0.00%     74.97% # Class of executed instruction. (Count)
system.cpu0.exec_context.thread_0.statExecutedInstType::SimdFloatMultAcc            0      0.00%     74.97% # Class of executed instruction. (Count)
system.cpu0.exec_context.thread_0.statExecutedInstType::SimdFloatSqrt            0      0.00%     74.97% # Class of executed instruction. (Count)
system.cpu0.exec_context.thread_0.statExecutedInstType::SimdReduceAdd            0      0.00%     74.97% # Class of executed instruction. (Count)
system.cpu0.exec_context.thread_0.statExecutedInstType::SimdReduceAlu            0      0.00%     74.97% # Class of executed instruction. (Count)
system.cpu0.exec_context.thread_0.statExecutedInstType::SimdReduceCmp            0      0.00%     74.97% # Class of executed instruction. (Count)
system.cpu0.exec_context.thread_0.statExecutedInstType::SimdFloatReduceAdd            0      0.00%     74.97% # Class of executed instruction. (Count)
system.cpu0.exec_context.thread_0.statExecutedInstType::SimdFloatReduceCmp            0      0.00%     74.97% # Class of executed instruction. (Count)
system.cpu0.exec_context.thread_0.statExecutedInstType::SimdAes            0      0.00%     74.97% # Class of executed instruction. (Count)
system.cpu0.exec_context.thread_0.statExecutedInstType::SimdAesMix            0      0.00%     74.97% # Class of executed instruction. (Count)
system.cpu0.exec_context.thread_0.statExecutedInstType::SimdSha1Hash            0      0.00%     74.97% # Class of executed instruction. (Count)
system.cpu0.exec_context.thread_0.statExecutedInstType::SimdSha1Hash2            0      0.00%     74.97% # Class of executed instruction. (Count)
system.cpu0.exec_context.thread_0.statExecutedInstType::SimdSha256Hash            0      0.00%     74.97% # Class of executed instruction. (Count)
system.cpu0.exec_context.thread_0.statExecutedInstType::SimdSha256Hash2            0      0.00%     74.97% # Class of executed instruction. (Count)
system.cpu0.exec_context.thread_0.statExecutedInstType::SimdShaSigma2            0      0.00%     74.97% # Class of executed instruction. (Count)
system.cpu0.exec_context.thread_0.statExecutedInstType::SimdShaSigma3            0      0.00%     74.97% # Class of executed instruction. (Count)
system.cpu0.exec_context.thread_0.statExecutedInstType::SimdPredAlu            0      0.00%     74.97% # Class of executed instruction. (Count)
system.cpu0.exec_context.thread_0.statExecutedInstType::MemRead     31472028     17.07%     92.03% # Class of executed instruction. (Count)
system.cpu0.exec_context.thread_0.statExecutedInstType::MemWrite     14689559      7.97%    100.00% # Class of executed instruction. (Count)
system.cpu0.exec_context.thread_0.statExecutedInstType::FloatMemRead            0      0.00%    100.00% # Class of executed instruction. (Count)
system.cpu0.exec_context.thread_0.statExecutedInstType::FloatMemWrite           12      0.00%    100.00% # Class of executed instruction. (Count)
system.cpu0.exec_context.thread_0.statExecutedInstType::IprAccess            0      0.00%    100.00% # Class of executed instruction. (Count)
system.cpu0.exec_context.thread_0.statExecutedInstType::InstPrefetch            0      0.00%    100.00% # Class of executed instruction. (Count)
system.cpu0.exec_context.thread_0.statExecutedInstType::total    184413195                       # Class of executed instruction. (Count)
system.cpu0.mmu.dtb.readHits                        0                       # read hits (Count)
system.cpu0.mmu.dtb.readMisses                      0                       # read misses (Count)
system.cpu0.mmu.dtb.readAccesses                    0                       # read accesses (Count)
system.cpu0.mmu.dtb.writeHits                       0                       # write hits (Count)
system.cpu0.mmu.dtb.writeMisses                     0                       # write misses (Count)
system.cpu0.mmu.dtb.writeAccesses                   0                       # write accesses (Count)
system.cpu0.mmu.dtb.hits                            0                       # Total TLB (read and write) hits (Count)
system.cpu0.mmu.dtb.misses                          0                       # Total TLB (read and write) misses (Count)
system.cpu0.mmu.dtb.accesses                        0                       # Total TLB (read and write) accesses (Count)
system.cpu0.mmu.dtb.walker.power_state.pwrStateResidencyTicks::UNDEFINED 2474487447000                       # Cumulative time (in ticks) in various power states (Tick)
system.cpu0.mmu.itb.readHits                        0                       # read hits (Count)
system.cpu0.mmu.itb.readMisses                      0                       # read misses (Count)
system.cpu0.mmu.itb.readAccesses                    0                       # read accesses (Count)
system.cpu0.mmu.itb.writeHits                       0                       # write hits (Count)
system.cpu0.mmu.itb.writeMisses                     0                       # write misses (Count)
system.cpu0.mmu.itb.writeAccesses                   0                       # write accesses (Count)
system.cpu0.mmu.itb.hits                            0                       # Total TLB (read and write) hits (Count)
system.cpu0.mmu.itb.misses                          0                       # Total TLB (read and write) misses (Count)
system.cpu0.mmu.itb.accesses                        0                       # Total TLB (read and write) accesses (Count)
system.cpu0.mmu.itb.walker.power_state.pwrStateResidencyTicks::UNDEFINED 2474487447000                       # Cumulative time (in ticks) in various power states (Tick)
system.cpu0.power_state.numTransitions        4194310                       # Number of power state transitions (Count)
system.cpu0.power_state.ticksClkGated::samples      2097155                       # Distribution of time spent in the clock gated state (Tick)
system.cpu0.power_state.ticksClkGated::mean 802856.739726                       # Distribution of time spent in the clock gated state (Tick)
system.cpu0.power_state.ticksClkGated::stdev 81281.609337                       # Distribution of time spent in the clock gated state (Tick)
system.cpu0.power_state.ticksClkGated::1000-5e+10      2097155    100.00%    100.00% # Distribution of time spent in the clock gated state (Tick)
system.cpu0.power_state.ticksClkGated::min_value        61000                       # Distribution of time spent in the clock gated state (Tick)
system.cpu0.power_state.ticksClkGated::max_value      2910000                       # Distribution of time spent in the clock gated state (Tick)
system.cpu0.power_state.ticksClkGated::total      2097155                       # Distribution of time spent in the clock gated state (Tick)
system.cpu0.power_state.pwrStateResidencyTicks::ON 790772421000                       # Cumulative time (in ticks) in various power states (Tick)
system.cpu0.power_state.pwrStateResidencyTicks::CLK_GATED 1683715026000                       # Cumulative time (in ticks) in various power states (Tick)
system.cpu0.thread_0.numInsts                       0                       # Number of Instructions committed (Count)
system.cpu0.thread_0.numOps                         0                       # Number of Ops committed (Count)
system.cpu0.thread_0.numMemRefs                     0                       # Number of Memory References (Count)
system.cpu0.workload.numSyscalls              4194342                       # Number of system calls (Count)
system.cpu1.numCycles                      2474474020                       # Number of cpu cycles simulated (Cycle)
system.cpu1.numWorkItemsStarted                     0                       # Number of work items this cpu started (Count)
system.cpu1.numWorkItemsCompleted                   0                       # Number of work items this cpu completed (Count)
system.cpu1.exec_context.thread_0.numInsts    178068069                       # Number of instructions committed (Count)
system.cpu1.exec_context.thread_0.numOps    180165230                       # Number of ops (including micro ops) committed (Count)
system.cpu1.exec_context.thread_0.numIntAluAccesses    171911884                       # Number of integer alu accesses (Count)
system.cpu1.exec_context.thread_0.numFpAluAccesses           12                       # Number of float alu accesses (Count)
system.cpu1.exec_context.thread_0.numVecAluAccesses            0                       # Number of vector alu accesses (Count)
system.cpu1.exec_context.thread_0.numCallsReturns     20971590                       # Number of times a function call or return occured (Count)
system.cpu1.exec_context.thread_0.numCondCtrlInsts     24055017                       # Number of instructions that are conditional controls (Count)
system.cpu1.exec_context.thread_0.numIntInsts    171911884                       # Number of integer instructions (Count)
system.cpu1.exec_context.thread_0.numFpInsts           12                       # Number of float instructions (Count)
system.cpu1.exec_context.thread_0.numVecInsts            0                       # Number of vector instructions (Count)
system.cpu1.exec_context.thread_0.numIntRegReads    155066397                       # Number of times the integer registers were read (Count)
system.cpu1.exec_context.thread_0.numIntRegWrites    122690711                       # Number of times the integer registers were written (Count)
system.cpu1.exec_context.thread_0.numFpRegReads           12                       # Number of times the floating registers were read (Count)
system.cpu1.exec_context.thread_0.numFpRegWrites            0                       # Number of times the floating registers were written (Count)
system.cpu1.exec_context.thread_0.numVecRegReads            0                       # Number of times the vector registers were read (Count)
system.cpu1.exec_context.thread_0.numVecRegWrites            0                       # Number of times the vector registers were written (Count)
system.cpu1.exec_context.thread_0.numVecPredRegReads            0                       # Number of times the predicate registers were read (Count)
system.cpu1.exec_context.thread_0.numVecPredRegWrites            0                       # Number of times the predicate registers were written (Count)
system.cpu1.exec_context.thread_0.numMiscRegReads      4194342                       # Number of times the Misc registers were read (Count)
system.cpu1.exec_context.thread_0.numMiscRegWrites            7                       # Number of times the Misc registers were written (Count)
system.cpu1.exec_context.thread_0.numMemRefs     46142179                       # Number of memory refs (Count)
system.cpu1.exec_context.thread_0.numLoadInsts     27267512                       # Number of load instructions (Count)
system.cpu1.exec_context.thread_0.numStoreInsts     18874667                       # Number of store instructions (Count)
system.cpu1.exec_context.thread_0.numIdleCycles 1683897414.829993                       # Number of idle cycles (Cycle)
system.cpu1.exec_context.thread_0.numBusyCycles 790576605.170007                       # Number of busy cycles (Cycle)
system.cpu1.exec_context.thread_0.notIdleFraction     0.319493                       # Percentage of non-idle cycles (Ratio)
system.cpu1.exec_context.thread_0.idleFraction     0.680507                       # Percentage of idle cycles (Ratio)
system.cpu1.exec_context.thread_0.numBranches     49085639                       # Number of branches fetched (Count)
system.cpu1.exec_context.thread_0.statExecutedInstType::No_OpClass      8388635      4.55%      4.55% # Class of executed instruction. (Count)
system.cpu1.exec_context.thread_0.statExecutedInstType::IntAlu    129828720     70.42%     74.97% # Class of executed instruction. (Count)
system.cpu1.exec_context.thread_0.statExecutedInstType::IntMult            0      0.00%     74.97% # Class of executed instruction. (Count)
system.cpu1.exec_context.thread_0.statExecutedInstType::IntDiv            2      0.00%     74.97% # Class of executed instruction. (Count)
system.cpu1.exec_context.thread_0.statExecutedInstType::FloatAdd            0      0.00%     74.97% # Class of executed instruction. (Count)
system.cpu1.exec_context.thread_0.statExecutedInstType::FloatCmp            0      0.00%     74.97% # Class of executed instruction. (Count)
system.cpu1.exec_context.thread_0.statExecutedInstType::FloatCvt            0      0.00%     74.97% # Class of executed instruction. (Count)
system.cpu1.exec_context.thread_0.statExecutedInstType::FloatMult            0      0.00%     74.97% # Class of executed instruction. (Count)
system.cpu1.exec_context.thread_0.statExecutedInstType::FloatMultAcc            0      0.00%     74.97% # Class of executed instruction. (Count)
system.cpu1.exec_context.thread_0.statExecutedInstType::FloatDiv            0      0.00%     74.97% # Class of executed instruction. (Count)
system.cpu1.exec_context.thread_0.statExecutedInstType::FloatMisc            0      0.00%     74.97% # Class of executed instruction. (Count)
system.cpu1.exec_context.thread_0.statExecutedInstType::FloatSqrt            0      0.00%     74.97% # Class of executed instruction. (Count)
system.cpu1.exec_context.thread_0.statExecutedInstType::SimdAdd            0      0.00%     74.97% # Class of executed instruction. (Count)
system.cpu1.exec_context.thread_0.statExecutedInstType::SimdAddAcc            0      0.00%     74.97% # Class of executed instruction. (Count)
system.cpu1.exec_context.thread_0.statExecutedInstType::SimdAlu            0      0.00%     74.97% # Class of executed instruction. (Count)
system.cpu1.exec_context.thread_0.statExecutedInstType::SimdCmp            0      0.00%     74.97% # Class of executed instruction. (Count)
system.cpu1.exec_context.thread_0.statExecutedInstType::SimdCvt            0      0.00%     74.97% # Class of executed instruction. (Count)
system.cpu1.exec_context.thread_0.statExecutedInstType::SimdMisc            0      0.00%     74.97% # Class of executed instruction. (Count)
system.cpu1.exec_context.thread_0.statExecutedInstType::SimdMult            0      0.00%     74.97% # Class of executed instruction. (Count)
system.cpu1.exec_context.thread_0.statExecutedInstType::SimdMultAcc            0      0.00%     74.97% # Class of executed instruction. (Count)
system.cpu1.exec_context.thread_0.statExecutedInstType::SimdShift            0      0.00%     74.97% # Class of executed instruction. (Count)
system.cpu1.exec_context.thread_0.statExecutedInstType::SimdShiftAcc            0      0.00%     74.97% # Class of executed instruction. (Count)
system.cpu1.exec_context.thread_0.statExecutedInstType::SimdDiv            0      0.00%     74.97% # Class of executed instruction. (Count)
system.cpu1.exec_context.thread_0.statExecutedInstType::SimdSqrt            0      0.00%     74.97% # Class of executed instruction. (Count)
system.cpu1.exec_context.thread_0.statExecutedInstType::SimdFloatAdd            0      0.00%     74.97% # Class of executed instruction. (Count)
system.cpu1.exec_context.thread_0.statExecutedInstType::SimdFloatAlu            0      0.00%     74.97% # Class of executed instruction. (Count)
system.cpu1.exec_context.thread_0.statExecutedInstType::SimdFloatCmp            0      0.00%     74.97% # Class of executed instruction. (Count)
system.cpu1.exec_context.thread_0.statExecutedInstType::SimdFloatCvt            0      0.00%     74.97% # Class of executed instruction. (Count)
system.cpu1.exec_context.thread_0.statExecutedInstType::SimdFloatDiv            0      0.00%     74.97% # Class of executed instruction. (Count)
system.cpu1.exec_context.thread_0.statExecutedInstType::SimdFloatMisc            0      0.00%     74.97% # Class of executed instruction. (Count)
system.cpu1.exec_context.thread_0.statExecutedInstType::SimdFloatMult            0      0.00%     74.97% # Class of executed instruction. (Count)
system.cpu1.exec_context.thread_0.statExecutedInstType::SimdFloatMultAcc            0      0.00%     74.97% # Class of executed instruction. (Count)
system.cpu1.exec_context.thread_0.statExecutedInstType::SimdFloatSqrt            0      0.00%     74.97% # Class of executed instruction. (Count)
system.cpu1.exec_context.thread_0.statExecutedInstType::SimdReduceAdd            0      0.00%     74.97% # Class of executed instruction. (Count)
system.cpu1.exec_context.thread_0.statExecutedInstType::SimdReduceAlu            0      0.00%     74.97% # Class of executed instruction. (Count)
system.cpu1.exec_context.thread_0.statExecutedInstType::SimdReduceCmp            0      0.00%     74.97% # Class of executed instruction. (Count)
system.cpu1.exec_context.thread_0.statExecutedInstType::SimdFloatReduceAdd            0      0.00%     74.97% # Class of executed instruction. (Count)
system.cpu1.exec_context.thread_0.statExecutedInstType::SimdFloatReduceCmp            0      0.00%     74.97% # Class of executed instruction. (Count)
system.cpu1.exec_context.thread_0.statExecutedInstType::SimdAes            0      0.00%     74.97% # Class of executed instruction. (Count)
system.cpu1.exec_context.thread_0.statExecutedInstType::SimdAesMix            0      0.00%     74.97% # Class of executed instruction. (Count)
system.cpu1.exec_context.thread_0.statExecutedInstType::SimdSha1Hash            0      0.00%     74.97% # Class of executed instruction. (Count)
system.cpu1.exec_context.thread_0.statExecutedInstType::SimdSha1Hash2            0      0.00%     74.97% # Class of executed instruction. (Count)
system.cpu1.exec_context.thread_0.statExecutedInstType::SimdSha256Hash            0      0.00%     74.97% # Class of executed instruction. (Count)
system.cpu1.exec_context.thread_0.statExecutedInstType::SimdSha256Hash2            0      0.00%     74.97% # Class of executed instruction. (Count)
system.cpu1.exec_context.thread_0.statExecutedInstType::SimdShaSigma2            0      0.00%     74.97% # Class of executed instruction. (Count)
system.cpu1.exec_context.thread_0.statExecutedInstType::SimdShaSigma3            0      0.00%     74.97% # Class of executed instruction. (Count)
system.cpu1.exec_context.thread_0.statExecutedInstType::SimdPredAlu            0      0.00%     74.97% # Class of executed instruction. (Count)
system.cpu1.exec_context.thread_0.statExecutedInstType::MemRead     31461825     17.07%     92.04% # Class of executed instruction. (Count)
system.cpu1.exec_context.thread_0.statExecutedInstType::MemWrite     14680342      7.96%    100.00% # Class of executed instruction. (Count)
system.cpu1.exec_context.thread_0.statExecutedInstType::FloatMemRead            0      0.00%    100.00% # Class of executed instruction. (Count)
system.cpu1.exec_context.thread_0.statExecutedInstType::FloatMemWrite           12      0.00%    100.00% # Class of executed instruction. (Count)
system.cpu1.exec_context.thread_0.statExecutedInstType::IprAccess            0      0.00%    100.00% # Class of executed instruction. (Count)
system.cpu1.exec_context.thread_0.statExecutedInstType::InstPrefetch            0      0.00%    100.00% # Class of executed instruction. (Count)
system.cpu1.exec_context.thread_0.statExecutedInstType::total    184359536                       # Class of executed instruction. (Count)
system.cpu1.mmu.dtb.readHits                        0                       # read hits (Count)
system.cpu1.mmu.dtb.readMisses                      0                       # read misses (Count)
system.cpu1.mmu.dtb.readAccesses                    0                       # read accesses (Count)
system.cpu1.mmu.dtb.writeHits                       0                       # write hits (Count)
system.cpu1.mmu.dtb.writeMisses                     0                       # write misses (Count)
system.cpu1.mmu.dtb.writeAccesses                   0                       # write accesses (Count)
system.cpu1.mmu.dtb.hits                            0                       # Total TLB (read and write) hits (Count)
system.cpu1.mmu.dtb.misses                          0                       # Total TLB (read and write) misses (Count)
system.cpu1.mmu.dtb.accesses                        0                       # Total TLB (read and write) accesses (Count)
system.cpu1.mmu.dtb.walker.power_state.pwrStateResidencyTicks::UNDEFINED 2474487447000                       # Cumulative time (in ticks) in various power states (Tick)
system.cpu1.mmu.itb.readHits                        0                       # read hits (Count)
system.cpu1.mmu.itb.readMisses                      0                       # read misses (Count)
system.cpu1.mmu.itb.readAccesses                    0                       # read accesses (Count)
system.cpu1.mmu.itb.writeHits                       0                       # write hits (Count)
system.cpu1.mmu.itb.writeMisses                     0                       # write misses (Count)
system.cpu1.mmu.itb.writeAccesses                   0                       # write accesses (Count)
system.cpu1.mmu.itb.hits                            0                       # Total TLB (read and write) hits (Count)
system.cpu1.mmu.itb.misses                          0                       # Total TLB (read and write) misses (Count)
system.cpu1.mmu.itb.accesses                        0                       # Total TLB (read and write) accesses (Count)
system.cpu1.mmu.itb.walker.power_state.pwrStateResidencyTicks::UNDEFINED 2474487447000                       # Cumulative time (in ticks) in various power states (Tick)
system.cpu1.power_state.numTransitions        4194300                       # Number of power state transitions (Count)
system.cpu1.power_state.ticksClkGated::samples      2097150                       # Distribution of time spent in the clock gated state (Tick)
system.cpu1.power_state.ticksClkGated::mean 802857.572897                       # Distribution of time spent in the clock gated state (Tick)
system.cpu1.power_state.ticksClkGated::stdev 81264.151174                       # Distribution of time spent in the clock gated state (Tick)
system.cpu1.power_state.ticksClkGated::1000-5e+10      2097150    100.00%    100.00% # Distribution of time spent in the clock gated state (Tick)
system.cpu1.power_state.ticksClkGated::min_value       147000                       # Distribution of time spent in the clock gated state (Tick)
system.cpu1.power_state.ticksClkGated::max_value      1766000                       # Distribution of time spent in the clock gated state (Tick)
system.cpu1.power_state.ticksClkGated::total      2097150                       # Distribution of time spent in the clock gated state (Tick)
system.cpu1.power_state.pwrStateResidencyTicks::ON 790774688000                       # Cumulative time (in ticks) in various power states (Tick)
system.cpu1.power_state.pwrStateResidencyTicks::CLK_GATED 1683712759000                       # Cumulative time (in ticks) in various power states (Tick)
system.cpu1.thread_0.numInsts                       0                       # Number of Instructions committed (Count)
system.cpu1.thread_0.numOps                         0                       # Number of Ops committed (Count)
system.cpu1.thread_0.numMemRefs                     0                       # Number of Memory References (Count)
system.cpu2.numCycles                      2474473705                       # Number of cpu cycles simulated (Cycle)
system.cpu2.numWorkItemsStarted                     0                       # Number of work items this cpu started (Count)
system.cpu2.numWorkItemsCompleted                   0                       # Number of work items this cpu completed (Count)
system.cpu2.exec_context.thread_0.numInsts    178067173                       # Number of instructions committed (Count)
system.cpu2.exec_context.thread_0.numOps    180164335                       # Number of ops (including micro ops) committed (Count)
system.cpu2.exec_context.thread_0.numIntAluAccesses    171911004                       # Number of integer alu accesses (Count)
system.cpu2.exec_context.thread_0.numFpAluAccesses           12                       # Number of float alu accesses (Count)
system.cpu2.exec_context.thread_0.numVecAluAccesses            0                       # Number of vector alu accesses (Count)
system.cpu2.exec_context.thread_0.numCallsReturns     20971549                       # Number of times a function call or return occured (Count)
system.cpu2.exec_context.thread_0.numCondCtrlInsts     24054711                       # Number of instructions that are conditional controls (Count)
system.cpu2.exec_context.thread_0.numIntInsts    171911004                       # Number of integer instructions (Count)
system.cpu2.exec_context.thread_0.numFpInsts           12                       # Number of float instructions (Count)
system.cpu2.exec_context.thread_0.numVecInsts            0                       # Number of vector instructions (Count)
system.cpu2.exec_context.thread_0.numIntRegReads    155065590                       # Number of times the integer registers were read (Count)
system.cpu2.exec_context.thread_0.numIntRegWrites    122690173                       # Number of times the integer registers were written (Count)
system.cpu2.exec_context.thread_0.numFpRegReads           12                       # Number of times the floating registers were read (Count)
system.cpu2.exec_context.thread_0.numFpRegWrites            0                       # Number of times the floating registers were written (Count)
system.cpu2.exec_context.thread_0.numVecRegReads            0                       # Number of times the vector registers were read (Count)
system.cpu2.exec_context.thread_0.numVecRegWrites            0                       # Number of times the vector registers were written (Count)
system.cpu2.exec_context.thread_0.numVecPredRegReads            0                       # Number of times the predicate registers were read (Count)
system.cpu2.exec_context.thread_0.numVecPredRegWrites            0                       # Number of times the predicate registers were written (Count)
system.cpu2.exec_context.thread_0.numMiscRegReads      4194328                       # Number of times the Misc registers were read (Count)
system.cpu2.exec_context.thread_0.numMiscRegWrites            7                       # Number of times the Misc registers were written (Count)
system.cpu2.exec_context.thread_0.numMemRefs     46141846                       # Number of memory refs (Count)
system.cpu2.exec_context.thread_0.numLoadInsts     27267195                       # Number of load instructions (Count)
system.cpu2.exec_context.thread_0.numStoreInsts     18874651                       # Number of store instructions (Count)
system.cpu2.exec_context.thread_0.numIdleCycles 1683894072.487593                       # Number of idle cycles (Cycle)
system.cpu2.exec_context.thread_0.numBusyCycles 790579632.512407                       # Number of busy cycles (Cycle)
system.cpu2.exec_context.thread_0.notIdleFraction     0.319494                       # Percentage of non-idle cycles (Ratio)
system.cpu2.exec_context.thread_0.idleFraction     0.680506                       # Percentage of idle cycles (Ratio)
system.cpu2.exec_context.thread_0.numBranches     49085276                       # Number of branches fetched (Count)
system.cpu2.exec_context.thread_0.statExecutedInstType::No_OpClass      8388621      4.55%      4.55% # Class of executed instruction. (Count)
system.cpu2.exec_context.thread_0.statExecutedInstType::IntAlu    129828154     70.42%     74.97% # Class of executed instruction. (Count)
system.cpu2.exec_context.thread_0.statExecutedInstType::IntMult            0      0.00%     74.97% # Class of executed instruction. (Count)
system.cpu2.exec_context.thread_0.statExecutedInstType::IntDiv            2      0.00%     74.97% # Class of executed instruction. (Count)
system.cpu2.exec_context.thread_0.statExecutedInstType::FloatAdd            0      0.00%     74.97% # Class of executed instruction. (Count)
system.cpu2.exec_context.thread_0.statExecutedInstType::FloatCmp            0      0.00%     74.97% # Class of executed instruction. (Count)
system.cpu2.exec_context.thread_0.statExecutedInstType::FloatCvt            0      0.00%     74.97% # Class of executed instruction. (Count)
system.cpu2.exec_context.thread_0.statExecutedInstType::FloatMult            0      0.00%     74.97% # Class of executed instruction. (Count)
system.cpu2.exec_context.thread_0.statExecutedInstType::FloatMultAcc            0      0.00%     74.97% # Class of executed instruction. (Count)
system.cpu2.exec_context.thread_0.statExecutedInstType::FloatDiv            0      0.00%     74.97% # Class of executed instruction. (Count)
system.cpu2.exec_context.thread_0.statExecutedInstType::FloatMisc            0      0.00%     74.97% # Class of executed instruction. (Count)
system.cpu2.exec_context.thread_0.statExecutedInstType::FloatSqrt            0      0.00%     74.97% # Class of executed instruction. (Count)
system.cpu2.exec_context.thread_0.statExecutedInstType::SimdAdd            0      0.00%     74.97% # Class of executed instruction. (Count)
system.cpu2.exec_context.thread_0.statExecutedInstType::SimdAddAcc            0      0.00%     74.97% # Class of executed instruction. (Count)
system.cpu2.exec_context.thread_0.statExecutedInstType::SimdAlu            0      0.00%     74.97% # Class of executed instruction. (Count)
system.cpu2.exec_context.thread_0.statExecutedInstType::SimdCmp            0      0.00%     74.97% # Class of executed instruction. (Count)
system.cpu2.exec_context.thread_0.statExecutedInstType::SimdCvt            0      0.00%     74.97% # Class of executed instruction. (Count)
system.cpu2.exec_context.thread_0.statExecutedInstType::SimdMisc            0      0.00%     74.97% # Class of executed instruction. (Count)
system.cpu2.exec_context.thread_0.statExecutedInstType::SimdMult            0      0.00%     74.97% # Class of executed instruction. (Count)
system.cpu2.exec_context.thread_0.statExecutedInstType::SimdMultAcc            0      0.00%     74.97% # Class of executed instruction. (Count)
system.cpu2.exec_context.thread_0.statExecutedInstType::SimdShift            0      0.00%     74.97% # Class of executed instruction. (Count)
system.cpu2.exec_context.thread_0.statExecutedInstType::SimdShiftAcc            0      0.00%     74.97% # Class of executed instruction. (Count)
system.cpu2.exec_context.thread_0.statExecutedInstType::SimdDiv            0      0.00%     74.97% # Class of executed instruction. (Count)
system.cpu2.exec_context.thread_0.statExecutedInstType::SimdSqrt            0      0.00%     74.97% # Class of executed instruction. (Count)
system.cpu2.exec_context.thread_0.statExecutedInstType::SimdFloatAdd            0      0.00%     74.97% # Class of executed instruction. (Count)
system.cpu2.exec_context.thread_0.statExecutedInstType::SimdFloatAlu            0      0.00%     74.97% # Class of executed instruction. (Count)
system.cpu2.exec_context.thread_0.statExecutedInstType::SimdFloatCmp            0      0.00%     74.97% # Class of executed instruction. (Count)
system.cpu2.exec_context.thread_0.statExecutedInstType::SimdFloatCvt            0      0.00%     74.97% # Class of executed instruction. (Count)
system.cpu2.exec_context.thread_0.statExecutedInstType::SimdFloatDiv            0      0.00%     74.97% # Class of executed instruction. (Count)
system.cpu2.exec_context.thread_0.statExecutedInstType::SimdFloatMisc            0      0.00%     74.97% # Class of executed instruction. (Count)
system.cpu2.exec_context.thread_0.statExecutedInstType::SimdFloatMult            0      0.00%     74.97% # Class of executed instruction. (Count)
system.cpu2.exec_context.thread_0.statExecutedInstType::SimdFloatMultAcc            0      0.00%     74.97% # Class of executed instruction. (Count)
system.cpu2.exec_context.thread_0.statExecutedInstType::SimdFloatSqrt            0      0.00%     74.97% # Class of executed instruction. (Count)
system.cpu2.exec_context.thread_0.statExecutedInstType::SimdReduceAdd            0      0.00%     74.97% # Class of executed instruction. (Count)
system.cpu2.exec_context.thread_0.statExecutedInstType::SimdReduceAlu            0      0.00%     74.97% # Class of executed instruction. (Count)
system.cpu2.exec_context.thread_0.statExecutedInstType::SimdReduceCmp            0      0.00%     74.97% # Class of executed instruction. (Count)
system.cpu2.exec_context.thread_0.statExecutedInstType::SimdFloatReduceAdd            0      0.00%     74.97% # Class of executed instruction. (Count)
system.cpu2.exec_context.thread_0.statExecutedInstType::SimdFloatReduceCmp            0      0.00%     74.97% # Class of executed instruction. (Count)
system.cpu2.exec_context.thread_0.statExecutedInstType::SimdAes            0      0.00%     74.97% # Class of executed instruction. (Count)
system.cpu2.exec_context.thread_0.statExecutedInstType::SimdAesMix            0      0.00%     74.97% # Class of executed instruction. (Count)
system.cpu2.exec_context.thread_0.statExecutedInstType::SimdSha1Hash            0      0.00%     74.97% # Class of executed instruction. (Count)
system.cpu2.exec_context.thread_0.statExecutedInstType::SimdSha1Hash2            0      0.00%     74.97% # Class of executed instruction. (Count)
system.cpu2.exec_context.thread_0.statExecutedInstType::SimdSha256Hash            0      0.00%     74.97% # Class of executed instruction. (Count)
system.cpu2.exec_context.thread_0.statExecutedInstType::SimdSha256Hash2            0      0.00%     74.97% # Class of executed instruction. (Count)
system.cpu2.exec_context.thread_0.statExecutedInstType::SimdShaSigma2            0      0.00%     74.97% # Class of executed instruction. (Count)
system.cpu2.exec_context.thread_0.statExecutedInstType::SimdShaSigma3            0      0.00%     74.97% # Class of executed instruction. (Count)
system.cpu2.exec_context.thread_0.statExecutedInstType::SimdPredAlu            0      0.00%     74.97% # Class of executed instruction. (Count)
system.cpu2.exec_context.thread_0.statExecutedInstType::MemRead     31461500     17.07%     92.04% # Class of executed instruction. (Count)
system.cpu2.exec_context.thread_0.statExecutedInstType::MemWrite     14680334      7.96%    100.00% # Class of executed instruction. (Count)
system.cpu2.exec_context.thread_0.statExecutedInstType::FloatMemRead            0      0.00%    100.00% # Class of executed instruction. (Count)
system.cpu2.exec_context.thread_0.statExecutedInstType::FloatMemWrite           12      0.00%    100.00% # Class of executed instruction. (Count)
system.cpu2.exec_context.thread_0.statExecutedInstType::IprAccess            0      0.00%    100.00% # Class of executed instruction. (Count)
system.cpu2.exec_context.thread_0.statExecutedInstType::InstPrefetch            0      0.00%    100.00% # Class of executed instruction. (Count)
system.cpu2.exec_context.thread_0.statExecutedInstType::total    184358623                       # Class of executed instruction. (Count)
system.cpu2.mmu.dtb.readHits                        0                       # read hits (Count)
system.cpu2.mmu.dtb.readMisses                      0                       # read misses (Count)
system.cpu2.mmu.dtb.readAccesses                    0                       # read accesses (Count)
system.cpu2.mmu.dtb.writeHits                       0                       # write hits (Count)
system.cpu2.mmu.dtb.writeMisses                     0                       # write misses (Count)
system.cpu2.mmu.dtb.writeAccesses                   0                       # write accesses (Count)
system.cpu2.mmu.dtb.hits                            0                       # Total TLB (read and write) hits (Count)
system.cpu2.mmu.dtb.misses                          0                       # Total TLB (read and write) misses (Count)
system.cpu2.mmu.dtb.accesses                        0                       # Total TLB (read and write) accesses (Count)
system.cpu2.mmu.dtb.walker.power_state.pwrStateResidencyTicks::UNDEFINED 2474487447000                       # Cumulative time (in ticks) in various power states (Tick)
system.cpu2.mmu.itb.readHits                        0                       # read hits (Count)
system.cpu2.mmu.itb.readMisses                      0                       # read misses (Count)
system.cpu2.mmu.itb.readAccesses                    0                       # read accesses (Count)
system.cpu2.mmu.itb.writeHits                       0                       # write hits (Count)
system.cpu2.mmu.itb.writeMisses                     0                       # write misses (Count)
system.cpu2.mmu.itb.writeAccesses                   0                       # write accesses (Count)
system.cpu2.mmu.itb.hits                            0                       # Total TLB (read and write) hits (Count)
system.cpu2.mmu.itb.misses                          0                       # Total TLB (read and write) misses (Count)
system.cpu2.mmu.itb.accesses                        0                       # Total TLB (read and write) accesses (Count)
system.cpu2.mmu.itb.walker.power_state.pwrStateResidencyTicks::UNDEFINED 2474487447000                       # Cumulative time (in ticks) in various power states (Tick)
system.cpu2.power_state.numTransitions        4194280                       # Number of power state transitions (Count)
system.cpu2.power_state.ticksClkGated::samples      2097140                       # Distribution of time spent in the clock gated state (Tick)
system.cpu2.power_state.ticksClkGated::mean 802857.876441                       # Distribution of time spent in the clock gated state (Tick)
system.cpu2.power_state.ticksClkGated::stdev 81261.133595                       # Distribution of time spent in the clock gated state (Tick)
system.cpu2.power_state.ticksClkGated::1000-5e+10      2097140    100.00%    100.00% # Distribution of time spent in the clock gated state (Tick)
system.cpu2.power_state.ticksClkGated::min_value       224000                       # Distribution of time spent in the clock gated state (Tick)
system.cpu2.power_state.ticksClkGated::max_value       869000                       # Distribution of time spent in the clock gated state (Tick)
system.cpu2.power_state.ticksClkGated::total      2097140                       # Distribution of time spent in the clock gated state (Tick)
system.cpu2.power_state.pwrStateResidencyTicks::ON 790782080000                       # Cumulative time (in ticks) in various power states (Tick)
system.cpu2.power_state.pwrStateResidencyTicks::CLK_GATED 1683705367000                       # Cumulative time (in ticks) in various power states (Tick)
system.cpu2.thread_0.numInsts                       0                       # Number of Instructions committed (Count)
system.cpu2.thread_0.numOps                         0                       # Number of Ops committed (Count)
system.cpu2.thread_0.numMemRefs                     0                       # Number of Memory References (Count)
system.cpu3.numCycles                      2474473705                       # Number of cpu cycles simulated (Cycle)
system.cpu3.numWorkItemsStarted                     0                       # Number of work items this cpu started (Count)
system.cpu3.numWorkItemsCompleted                   0                       # Number of work items this cpu completed (Count)
system.cpu3.exec_context.thread_0.numInsts    178062140                       # Number of instructions committed (Count)
system.cpu3.exec_context.thread_0.numOps    180159298                       # Number of ops (including micro ops) committed (Count)
system.cpu3.exec_context.thread_0.numIntAluAccesses    171905954                       # Number of integer alu accesses (Count)
system.cpu3.exec_context.thread_0.numFpAluAccesses           12                       # Number of float alu accesses (Count)
system.cpu3.exec_context.thread_0.numVecAluAccesses            0                       # Number of vector alu accesses (Count)
system.cpu3.exec_context.thread_0.numCallsReturns     20971600                       # Number of times a function call or return occured (Count)
system.cpu3.exec_context.thread_0.numCondCtrlInsts     24052038                       # Number of instructions that are conditional controls (Count)
system.cpu3.exec_context.thread_0.numIntInsts    171905954                       # Number of integer instructions (Count)
system.cpu3.exec_context.thread_0.numFpInsts           12                       # Number of float instructions (Count)
system.cpu3.exec_context.thread_0.numVecInsts            0                       # Number of vector instructions (Count)
system.cpu3.exec_context.thread_0.numIntRegReads    155060426                       # Number of times the integer registers were read (Count)
system.cpu3.exec_context.thread_0.numIntRegWrites    122687762                       # Number of times the integer registers were written (Count)
system.cpu3.exec_context.thread_0.numFpRegReads           12                       # Number of times the floating registers were read (Count)
system.cpu3.exec_context.thread_0.numFpRegWrites            0                       # Number of times the floating registers were written (Count)
system.cpu3.exec_context.thread_0.numVecRegReads            0                       # Number of times the vector registers were read (Count)
system.cpu3.exec_context.thread_0.numVecRegWrites            0                       # Number of times the vector registers were written (Count)
system.cpu3.exec_context.thread_0.numVecPredRegReads            0                       # Number of times the predicate registers were read (Count)
system.cpu3.exec_context.thread_0.numVecPredRegWrites            0                       # Number of times the predicate registers were written (Count)
system.cpu3.exec_context.thread_0.numMiscRegReads      4194346                       # Number of times the Misc registers were read (Count)
system.cpu3.exec_context.thread_0.numMiscRegWrites            7                       # Number of times the Misc registers were written (Count)
system.cpu3.exec_context.thread_0.numMemRefs     46139196                       # Number of memory refs (Count)
system.cpu3.exec_context.thread_0.numLoadInsts     27264539                       # Number of load instructions (Count)
system.cpu3.exec_context.thread_0.numStoreInsts     18874657                       # Number of store instructions (Count)
system.cpu3.exec_context.thread_0.numIdleCycles 1683903360.436012                       # Number of idle cycles (Cycle)
system.cpu3.exec_context.thread_0.numBusyCycles 790570344.563988                       # Number of busy cycles (Cycle)
system.cpu3.exec_context.thread_0.notIdleFraction     0.319490                       # Percentage of non-idle cycles (Ratio)
system.cpu3.exec_context.thread_0.idleFraction     0.680510                       # Percentage of idle cycles (Ratio)
system.cpu3.exec_context.thread_0.numBranches     49082671                       # Number of branches fetched (Count)
system.cpu3.exec_context.thread_0.statExecutedInstType::No_OpClass      8388636      4.55%      4.55% # Class of executed instruction. (Count)
system.cpu3.exec_context.thread_0.statExecutedInstType::IntAlu    129825774     70.42%     74.97% # Class of executed instruction. (Count)
system.cpu3.exec_context.thread_0.statExecutedInstType::IntMult            0      0.00%     74.97% # Class of executed instruction. (Count)
system.cpu3.exec_context.thread_0.statExecutedInstType::IntDiv            2      0.00%     74.97% # Class of executed instruction. (Count)
system.cpu3.exec_context.thread_0.statExecutedInstType::FloatAdd            0      0.00%     74.97% # Class of executed instruction. (Count)
system.cpu3.exec_context.thread_0.statExecutedInstType::FloatCmp            0      0.00%     74.97% # Class of executed instruction. (Count)
system.cpu3.exec_context.thread_0.statExecutedInstType::FloatCvt            0      0.00%     74.97% # Class of executed instruction. (Count)
system.cpu3.exec_context.thread_0.statExecutedInstType::FloatMult            0      0.00%     74.97% # Class of executed instruction. (Count)
system.cpu3.exec_context.thread_0.statExecutedInstType::FloatMultAcc            0      0.00%     74.97% # Class of executed instruction. (Count)
system.cpu3.exec_context.thread_0.statExecutedInstType::FloatDiv            0      0.00%     74.97% # Class of executed instruction. (Count)
system.cpu3.exec_context.thread_0.statExecutedInstType::FloatMisc            0      0.00%     74.97% # Class of executed instruction. (Count)
system.cpu3.exec_context.thread_0.statExecutedInstType::FloatSqrt            0      0.00%     74.97% # Class of executed instruction. (Count)
system.cpu3.exec_context.thread_0.statExecutedInstType::SimdAdd            0      0.00%     74.97% # Class of executed instruction. (Count)
system.cpu3.exec_context.thread_0.statExecutedInstType::SimdAddAcc            0      0.00%     74.97% # Class of executed instruction. (Count)
system.cpu3.exec_context.thread_0.statExecutedInstType::SimdAlu            0      0.00%     74.97% # Class of executed instruction. (Count)
system.cpu3.exec_context.thread_0.statExecutedInstType::SimdCmp            0      0.00%     74.97% # Class of executed instruction. (Count)
system.cpu3.exec_context.thread_0.statExecutedInstType::SimdCvt            0      0.00%     74.97% # Class of executed instruction. (Count)
system.cpu3.exec_context.thread_0.statExecutedInstType::SimdMisc            0      0.00%     74.97% # Class of executed instruction. (Count)
system.cpu3.exec_context.thread_0.statExecutedInstType::SimdMult            0      0.00%     74.97% # Class of executed instruction. (Count)
system.cpu3.exec_context.thread_0.statExecutedInstType::SimdMultAcc            0      0.00%     74.97% # Class of executed instruction. (Count)
system.cpu3.exec_context.thread_0.statExecutedInstType::SimdShift            0      0.00%     74.97% # Class of executed instruction. (Count)
system.cpu3.exec_context.thread_0.statExecutedInstType::SimdShiftAcc            0      0.00%     74.97% # Class of executed instruction. (Count)
system.cpu3.exec_context.thread_0.statExecutedInstType::SimdDiv            0      0.00%     74.97% # Class of executed instruction. (Count)
system.cpu3.exec_context.thread_0.statExecutedInstType::SimdSqrt            0      0.00%     74.97% # Class of executed instruction. (Count)
system.cpu3.exec_context.thread_0.statExecutedInstType::SimdFloatAdd            0      0.00%     74.97% # Class of executed instruction. (Count)
[...]
system.ruby.network.routers8.throttle02.total_stall_cy            0                       # Total time spent blocked on any output link (Cycle)
system.ruby.network.routers8.throttle02.total_bw_sat_cy    113652736                       # Total time bandwidth was saturated on any output link (Cycle)
system.ruby.network.routers8.throttle02.avg_msg_wait_time     0.157374                       # Average time a message took to be forwarded (Ratio)
system.ruby.network.routers8.throttle02.avg_bandwidth         0.77                       # Average bandwidth (GB/s) (Ratio)
system.ruby.network.routers8.throttle02.avg_useful_bandwidth         0.68                       # Average usefull (only data) bandwidth (GB/s) (Ratio)
system.ruby.network.routers8.throttle02.msg_count.Data::2     14138878                       (Unspecified)
system.ruby.network.routers8.throttle02.msg_count.Data::3     14274306                       (Unspecified)
system.ruby.network.routers8.throttle02.msg_bytes.Data::2   1017999216                       (Unspecified)
system.ruby.network.routers8.throttle02.msg_bytes.Data::3   1027750032                       (Unspecified)
system.ruby.network.routers8.throttle03.acc_link_utilization 127859737.500000                       # Accumulated link utilization (Count)
system.ruby.network.routers8.throttle03.link_utilization     2.583560                       # Average link utilization (Ratio)
system.ruby.network.routers8.throttle03.total_msg_count     28413275                       # Total number of messages forwarded by this switch (Count)
system.ruby.network.routers8.throttle03.total_msg_bytes   2045755800                       # Total number of bytes forwarded by this switch (Byte)
system.ruby.network.routers8.throttle03.total_data_msg_bytes   1818449600                       # Total number of data bytes forwarded by this switch (Byte)
system.ruby.network.routers8.throttle03.total_msg_wait_time      4539500                       # Total time spend forwarding messages (Tick)
system.ruby.network.routers8.throttle03.total_stall_cy            0                       # Total time spent blocked on any output link (Cycle)
system.ruby.network.routers8.throttle03.total_bw_sat_cy    113653100                       # Total time bandwidth was saturated on any output link (Cycle)
system.ruby.network.routers8.throttle03.avg_msg_wait_time     0.159767                       # Average time a message took to be forwarded (Ratio)
system.ruby.network.routers8.throttle03.avg_bandwidth         0.77                       # Average bandwidth (GB/s) (Ratio)
system.ruby.network.routers8.throttle03.avg_useful_bandwidth         0.68                       # Average usefull (only data) bandwidth (GB/s) (Ratio)
system.ruby.network.routers8.throttle03.msg_count.Data::2     14138896                       (Unspecified)
system.ruby.network.routers8.throttle03.msg_count.Data::3     14274379                       (Unspecified)
system.ruby.network.routers8.throttle03.msg_bytes.Data::2   1018000512                       (Unspecified)
system.ruby.network.routers8.throttle03.msg_bytes.Data::3   1027755288                       (Unspecified)
system.ruby.network.routers8.throttle04.acc_link_utilization 608873197.500000                       # Accumulated link utilization (Count)
system.ruby.network.routers8.throttle04.link_utilization    12.303016                       # Average link utilization (Ratio)
system.ruby.network.routers8.throttle04.total_msg_count    135305155                       # Total number of messages forwarded by this switch (Count)
system.ruby.network.routers8.throttle04.total_msg_bytes   9741971160                       # Total number of bytes forwarded by this switch (Byte)
system.ruby.network.routers8.throttle04.total_data_msg_bytes   8659529920                       # Total number of data bytes forwarded by this switch (Byte)
system.ruby.network.routers8.throttle04.total_msg_wait_time   4670704000                       # Total time spend forwarding messages (Tick)
system.ruby.network.routers8.throttle04.total_stall_cy            0                       # Total time spent blocked on any output link (Cycle)
system.ruby.network.routers8.throttle04.total_bw_sat_cy    541220668                       # Total time bandwidth was saturated on any output link (Cycle)
system.ruby.network.routers8.throttle04.avg_msg_wait_time    34.519779                       # Average time a message took to be forwarded (Ratio)
system.ruby.network.routers8.throttle04.avg_bandwidth         3.67                       # Average bandwidth (GB/s) (Ratio)
system.ruby.network.routers8.throttle04.avg_useful_bandwidth         3.26                       # Average usefull (only data) bandwidth (GB/s) (Ratio)
system.ruby.network.routers8.throttle04.msg_count.Data::3     39778337                       (Unspecified)
system.ruby.network.routers8.throttle04.msg_count.Data::4     28281238                       (Unspecified)
system.ruby.network.routers8.throttle04.msg_count.Data::5     27736632                       (Unspecified)
system.ruby.network.routers8.throttle04.msg_count.Data::6     39508948                       (Unspecified)
system.ruby.network.routers8.throttle04.msg_bytes.Data::3   2864040264                       (Unspecified)
system.ruby.network.routers8.throttle04.msg_bytes.Data::4   2036249136                       (Unspecified)
system.ruby.network.routers8.throttle04.msg_bytes.Data::5   1997037504                       (Unspecified)
system.ruby.network.routers8.throttle04.msg_bytes.Data::6   2844644256                       (Unspecified)
system.ruby.network.routers8.throttle05.acc_link_utilization 608852776.500000                       # Accumulated link utilization (Count)
system.ruby.network.routers8.throttle05.link_utilization    12.302604                       # Average link utilization (Ratio)
system.ruby.network.routers8.throttle05.total_msg_count    135300617                       # Total number of messages forwarded by this switch (Count)
system.ruby.network.routers8.throttle05.total_msg_bytes   9741644424                       # Total number of bytes forwarded by this switch (Byte)
system.ruby.network.routers8.throttle05.total_data_msg_bytes   8659239488                       # Total number of data bytes forwarded by this switch (Byte)
system.ruby.network.routers8.throttle05.total_msg_wait_time   4670690500                       # Total time spend forwarding messages (Tick)
system.ruby.network.routers8.throttle05.total_stall_cy            0                       # Total time spent blocked on any output link (Cycle)
system.ruby.network.routers8.throttle05.total_bw_sat_cy    541202495                       # Total time bandwidth was saturated on any output link (Cycle)
system.ruby.network.routers8.throttle05.avg_msg_wait_time    34.520837                       # Average time a message took to be forwarded (Ratio)
system.ruby.network.routers8.throttle05.avg_bandwidth         3.67                       # Average bandwidth (GB/s) (Ratio)
system.ruby.network.routers8.throttle05.avg_useful_bandwidth         3.26                       # Average usefull (only data) bandwidth (GB/s) (Ratio)
system.ruby.network.routers8.throttle05.msg_count.Data::3     39778241                       (Unspecified)
system.ruby.network.routers8.throttle05.msg_count.Data::4     28278084                       (Unspecified)
system.ruby.network.routers8.throttle05.msg_count.Data::5     27736516                       (Unspecified)
system.ruby.network.routers8.throttle05.msg_count.Data::6     39507776                       (Unspecified)
system.ruby.network.routers8.throttle05.msg_bytes.Data::3   2864033352                       (Unspecified)
system.ruby.network.routers8.throttle05.msg_bytes.Data::4   2036022048                       (Unspecified)
system.ruby.network.routers8.throttle05.msg_bytes.Data::5   1997029152                       (Unspecified)
system.ruby.network.routers8.throttle05.msg_bytes.Data::6   2844559872                       (Unspecified)
system.ruby.network.routers8.throttle06.acc_link_utilization    567462888                       # Accumulated link utilization (Count)
system.ruby.network.routers8.throttle06.link_utilization    11.466271                       # Average link utilization (Ratio)
system.ruby.network.routers8.throttle06.total_msg_count    126102864                       # Total number of messages forwarded by this switch (Count)
system.ruby.network.routers8.throttle06.total_msg_bytes   9079406208                       # Total number of bytes forwarded by this switch (Byte)
system.ruby.network.routers8.throttle06.total_data_msg_bytes   8070583296                       # Total number of data bytes forwarded by this switch (Byte)
system.ruby.network.routers8.throttle06.total_msg_wait_time        52000                       # Total time spend forwarding messages (Tick)
system.ruby.network.routers8.throttle06.total_stall_cy            0                       # Total time spent blocked on any output link (Cycle)
system.ruby.network.routers8.throttle06.total_bw_sat_cy    504411461                       # Total time bandwidth was saturated on any output link (Cycle)
system.ruby.network.routers8.throttle06.avg_msg_wait_time     0.000412                       # Average time a message took to be forwarded (Ratio)
system.ruby.network.routers8.throttle06.avg_bandwidth         3.42                       # Average bandwidth (GB/s) (Ratio)
system.ruby.network.routers8.throttle06.avg_useful_bandwidth         3.04                       # Average usefull (only data) bandwidth (GB/s) (Ratio)
system.ruby.network.routers8.throttle06.msg_count.Data::2     23542327                       (Unspecified)
system.ruby.network.routers8.throttle06.msg_count.Data::3     23543610                       (Unspecified)
system.ruby.network.routers8.throttle06.msg_count.Data::6     23542327                       (Unspecified)
system.ruby.network.routers8.throttle06.msg_count.Data::7     55474600                       (Unspecified)
system.ruby.network.routers8.throttle06.msg_bytes.Data::2   1695047544                       (Unspecified)
system.ruby.network.routers8.throttle06.msg_bytes.Data::3   1695139920                       (Unspecified)
system.ruby.network.routers8.throttle06.msg_bytes.Data::6   1695047544                       (Unspecified)
system.ruby.network.routers8.throttle06.msg_bytes.Data::7   3994171200                       (Unspecified)
system.ruby.network.routers8.throttle07.acc_link_utilization 211886716.500000                       # Accumulated link utilization (Count)
system.ruby.network.routers8.throttle07.link_utilization     4.281426                       # Average link utilization (Ratio)
system.ruby.network.routers8.throttle07.total_msg_count     47085937                       # Total number of messages forwarded by this switch (Count)
system.ruby.network.routers8.throttle07.total_msg_bytes   3390187464                       # Total number of bytes forwarded by this switch (Byte)
system.ruby.network.routers8.throttle07.total_data_msg_bytes   3013499968                       # Total number of data bytes forwarded by this switch (Byte)
system.ruby.network.routers8.throttle07.total_msg_wait_time            0                       # Total time spend forwarding messages (Tick)
system.ruby.network.routers8.throttle07.total_stall_cy            0                       # Total time spent blocked on any output link (Cycle)
system.ruby.network.routers8.throttle07.total_bw_sat_cy    188343748                       # Total time bandwidth was saturated on any output link (Cycle)
system.ruby.network.routers8.throttle07.avg_msg_wait_time            0                       # Average time a message took to be forwarded (Ratio)
system.ruby.network.routers8.throttle07.avg_bandwidth         1.28                       # Average bandwidth (GB/s) (Ratio)
system.ruby.network.routers8.throttle07.avg_useful_bandwidth         1.13                       # Average usefull (only data) bandwidth (GB/s) (Ratio)
system.ruby.network.routers8.throttle07.msg_count.Data::4     47085937                       (Unspecified)
system.ruby.network.routers8.throttle07.msg_bytes.Data::4   3390187464                       (Unspecified)
system.ruby.power_state.pwrStateResidencyTicks::UNDEFINED 2474487447000                       # Cumulative time (in ticks) in various power states (Tick)
system.ruby_am.power_state.pwrStateResidencyTicks::UNDEFINED 2474487447000                       # Cumulative time (in ticks) in various power states (Tick)
system.sys_port_proxy.power_state.pwrStateResidencyTicks::UNDEFINED 2474487447000                       # Cumulative time (in ticks) in various power states (Tick)
system.workload.inst.arm                            0                       # number of arm instructions executed (Count)
system.workload.inst.quiesce                        0                       # number of quiesce instructions executed (Count)
system.cpu0.active_message_ack_latency              0                       # active messages ACK latency (Unspecified)
system.cpu0.active_message_nack_latency             0                       # active messages NACK latency (Unspecified)
system.cpu0.appl_num_steal_failed                   0                       # number of failed steals (Unspecified)
system.cpu0.appl_num_steal_successful               0                       # number of successful steals (Unspecified)
system.cpu0.appl_steal_failed_cycles                0                       # cycles of failed steals (Unspecified)
system.cpu0.appl_steal_successful_cycles            0                       # cycles of successful steals (Unspecified)
system.cpu0.num_active_message_ack                  0                       # number of active messages ACK received (Unspecified)
system.cpu0.num_active_message_nack                 0                       # number of active messages NACK received (Unspecified)
system.cpu0.uli_req_received                        0                       # number of uli request received (Unspecified)
system.cpu0.uli_req_sent                            1                       # number of uli request sent (Unspecified)
system.cpu0.uli_resp_ack_received                   0                       # number of uli ack response received (Unspecified)
system.cpu0.uli_resp_ack_sent                       0                       # number of uli ack response sent (Unspecified)
system.cpu0.uli_resp_nack_received                  0                       # number of uli nack response received (Unspecified)
system.cpu0.uli_resp_nack_sent                      0                       # number of uli nack response sent (Unspecified)
system.cpu1.active_message_ack_latency              0                       # active messages ACK latency (Unspecified)
system.cpu1.active_message_nack_latency             0                       # active messages NACK latency (Unspecified)
system.cpu1.appl_num_steal_failed                   0                       # number of failed steals (Unspecified)
system.cpu1.appl_num_steal_successful               0                       # number of successful steals (Unspecified)
system.cpu1.appl_steal_failed_cycles                0                       # cycles of failed steals (Unspecified)
system.cpu1.appl_steal_successful_cycles            0                       # cycles of successful steals (Unspecified)
system.cpu1.num_active_message_ack                  0                       # number of active messages ACK received (Unspecified)
system.cpu1.num_active_message_nack                 0                       # number of active messages NACK received (Unspecified)
system.cpu1.uli_req_received                        1                       # number of uli request received (Unspecified)
system.cpu1.uli_req_sent                            0                       # number of uli request sent (Unspecified)
system.cpu1.uli_resp_ack_received                   0                       # number of uli ack response received (Unspecified)
system.cpu1.uli_resp_ack_sent                       0                       # number of uli ack response sent (Unspecified)
system.cpu1.uli_resp_nack_received                  0                       # number of uli nack response received (Unspecified)
system.cpu1.uli_resp_nack_sent                      0                       # number of uli nack response sent (Unspecified)
system.cpu2.active_message_ack_latency              0                       # active messages ACK latency (Unspecified)
system.cpu2.active_message_nack_latency             0                       # active messages NACK latency (Unspecified)
system.cpu2.appl_num_steal_failed                   0                       # number of failed steals (Unspecified)
system.cpu2.appl_num_steal_successful               0                       # number of successful steals (Unspecified)
system.cpu2.appl_steal_failed_cycles                0                       # cycles of failed steals (Unspecified)
system.cpu2.appl_steal_successful_cycles            0                       # cycles of successful steals (Unspecified)
system.cpu2.num_active_message_ack                  0                       # number of active messages ACK received (Unspecified)
system.cpu2.num_active_message_nack                 0                       # number of active messages NACK received (Unspecified)
system.cpu2.uli_req_received                        0                       # number of uli request received (Unspecified)
system.cpu2.uli_req_sent                            1                       # number of uli request sent (Unspecified)
system.cpu2.uli_resp_ack_received                   0                       # number of uli ack response received (Unspecified)
system.cpu2.uli_resp_ack_sent                       0                       # number of uli ack response sent (Unspecified)
system.cpu2.uli_resp_nack_received                  0                       # number of uli nack response received (Unspecified)
system.cpu2.uli_resp_nack_sent                      0                       # number of uli nack response sent (Unspecified)
system.cpu3.active_message_ack_latency              0                       # active messages ACK latency (Unspecified)
system.cpu3.active_message_nack_latency             0                       # active messages NACK latency (Unspecified)
system.cpu3.appl_num_steal_failed                   0                       # number of failed steals (Unspecified)
system.cpu3.appl_num_steal_successful               0                       # number of successful steals (Unspecified)
system.cpu3.appl_steal_failed_cycles                0                       # cycles of failed steals (Unspecified)
system.cpu3.appl_steal_successful_cycles            0                       # cycles of successful steals (Unspecified)
system.cpu3.num_active_message_ack                  0                       # number of active messages ACK received (Unspecified)
system.cpu3.num_active_message_nack                 0                       # number of active messages NACK received (Unspecified)
system.cpu3.uli_req_received                        1                       # number of uli request received (Unspecified)
system.cpu3.uli_req_sent                            0                       # number of uli request sent (Unspecified)
system.cpu3.uli_resp_ack_received                   0                       # number of uli ack response received (Unspecified)
system.cpu3.uli_resp_ack_sent                       0                       # number of uli ack response sent (Unspecified)
system.cpu3.uli_resp_nack_received                  0                       # number of uli nack response received (Unspecified)
system.cpu3.uli_resp_nack_sent                      0                       # number of uli nack response sent (Unspecified)

---------- End Simulation Statistics   ----------
