
---------- Begin Simulation Statistics ----------
simSeconds                                   0.462398                       # Number of seconds simulated (Second)
simTicks                                 462398429000                       # Number of ticks simulated (Tick)
finalTick                                462398429000                       # Number of ticks from beginning of simulation (restored from checkpoints and never reset) (Tick)
simFreq                                  1000000000000                       # The number of ticks per simulated second ((Tick/Second))
hostSeconds                                   1458.15                       # Real time elapsed on the host (Second)
hostTickRate                                317112914                       # The number of ticks simulated per host second (ticks/s) ((Tick/Second))
hostMemory                                    1035152                       # Number of bytes of host memory used (Byte)
simInsts                                    178148964                       # Number of instructions simulated (Count)
simOps                                      180246195                       # Number of ops (including micro ops) simulated (Count)
hostInstRate                                   122175                       # Simulator instruction rate (inst/s) ((Count/Second))
hostOpRate                                     123613                       # Simulator op (including micro ops) rate (op/s) ((Count/Second))
system.adapters0.cpuReqBuffer.m_msg_count            1                       # Number of messages passed the buffer (Count)
system.adapters0.cpuReqBuffer.m_buf_msgs     0.000000                       # Average number of messages in buffer ((Count/Tick))
system.adapters0.cpuReqBuffer.m_occupancy     0.000000                       # Average occupancy of buffer capacity ((Ratio/Tick))
system.adapters0.power_state.pwrStateResidencyTicks::UNDEFINED 462398429000                       # Cumulative time (in ticks) in various power states (Tick)
system.adapters1.networkReqBuffer.m_msg_count            1                       # Number of messages passed the buffer (Count)
system.adapters1.networkReqBuffer.m_buf_msgs     0.000000                       # Average number of messages in buffer ((Count/Tick))
system.adapters1.networkReqBuffer.m_occupancy     0.000000                       # Average occupancy of buffer capacity ((Ratio/Tick))
system.adapters1.power_state.pwrStateResidencyTicks::UNDEFINED 462398429000                       # Cumulative time (in ticks) in various power states (Tick)
system.adapters2.cpuReqBuffer.m_msg_count            1                       # Number of messages passed the buffer (Count)
system.adapters2.cpuReqBuffer.m_buf_msgs     0.000000                       # Average number of messages in buffer ((Count/Tick))
system.adapters2.cpuReqBuffer.m_occupancy     0.000000                       # Average occupancy of buffer capacity ((Ratio/Tick))
system.adapters2.power_state.pwrStateResidencyTicks::UNDEFINED 462398429000                       # Cumulative time (in ticks) in various power states (Tick)
system.adapters3.networkReqBuffer.m_msg_count            1                       # Number of messages passed the buffer (Count)
system.adapters3.networkReqBuffer.m_buf_msgs     0.000000                       # Average number of messages in buffer ((Count/Tick))
system.adapters3.networkReqBuffer.m_occupancy     0.000000                       # Average occupancy of buffer capacity ((Ratio/Tick))
system.adapters3.power_state.pwrStateResidencyTicks::UNDEFINED 462398429000                       # Cumulative time (in ticks) in various power states (Tick)
system.am_network.msg_count.Control                 4                       (Unspecified)
system.am_network.msg_byte.Control                 32                       (Unspecified)
system.am_network.int_links0.buffers1.m_msg_count            1                       # Number of messages passed the buffer (Count)
system.am_network.int_links0.buffers1.m_buf_msgs     0.000000                       # Average number of messages in buffer ((Count/Tick))
system.am_network.int_links2.buffers1.m_msg_count            1                       # Number of messages passed the buffer (Count)
system.am_network.int_links2.buffers1.m_buf_msgs     0.000000                       # Average number of messages in buffer ((Count/Tick))
system.am_network.power_state.pwrStateResidencyTicks::UNDEFINED 462398429000                       # Cumulative time (in ticks) in various power states (Tick)
system.am_network.routers0.percent_links_utilized     0.000000                       (Unspecified)
system.am_network.routers0.msg_count.Control::1            1                       (Unspecified)
system.am_network.routers0.msg_bytes.Control::1            8                       (Unspecified)
system.am_network.routers0.port_buffers3.m_msg_count            1                       # Number of messages passed the buffer (Count)
system.am_network.routers0.port_buffers3.m_buf_msgs     0.000000                       # Average number of messages in buffer ((Count/Tick))
system.am_network.routers0.port_buffers3.m_occupancy     0.000000                       # Average occupancy of buffer capacity ((Ratio/Tick))
system.am_network.routers0.power_state.pwrStateResidencyTicks::UNDEFINED 462398429000                       # Cumulative time (in ticks) in various power states (Tick)
system.am_network.routers0.throttle00.acc_link_utilization            0                       # Accumulated link utilization (Count)
system.am_network.routers0.throttle00.link_utilization            0                       # Average link utilization (Ratio)
system.am_network.routers0.throttle00.total_msg_count            0                       # Total number of messages forwarded by this switch (Count)
system.am_network.routers0.throttle00.total_msg_bytes            0                       # Total number of bytes forwarded by this switch (Byte)
system.am_network.routers0.throttle00.total_data_msg_bytes            0                       # Total number of data bytes forwarded by this switch (Byte)
system.am_network.routers0.throttle00.total_msg_wait_time            0                       # Total time spend forwarding messages (Tick)
system.am_network.routers0.throttle00.total_stall_cy            0                       # Total time spent blocked on any output link (Cycle)
system.am_network.routers0.throttle00.total_bw_sat_cy            0                       # Total time bandwidth was saturated on any output link (Cycle)
system.am_network.routers0.throttle00.avg_msg_wait_time          nan                       # Average time a message took to be forwarded (Ratio)
system.am_network.routers0.throttle00.avg_bandwidth         0.00                       # Average bandwidth (GB/s) (Ratio)
system.am_network.routers0.throttle00.avg_useful_bandwidth         0.00                       # Average usefull (only data) bandwidth (GB/s) (Ratio)
system.am_network.routers0.throttle01.acc_link_utilization     0.500000                       # Accumulated link utilization (Count)
system.am_network.routers0.throttle01.link_utilization     0.000000                       # Average link utilization (Ratio)
system.am_network.routers0.throttle01.total_msg_count            1                       # Total number of messages forwarded by this switch (Count)
system.am_network.routers0.throttle01.total_msg_bytes            8                       # Total number of bytes forwarded by this switch (Byte)
system.am_network.routers0.throttle01.total_data_msg_bytes            0                       # Total number of data bytes forwarded by this switch (Byte)
system.am_network.routers0.throttle01.total_msg_wait_time            0                       # Total time spend forwarding messages (Tick)
system.am_network.routers0.throttle01.total_stall_cy            0                       # Total time spent blocked on any output link (Cycle)
system.am_network.routers0.throttle01.total_bw_sat_cy            0                       # Total time bandwidth was saturated on any output link (Cycle)
system.am_network.routers0.throttle01.avg_msg_wait_time            0                       # Average time a message took to be forwarded (Ratio)
system.am_network.routers0.throttle01.avg_bandwidth         0.00                       # Average bandwidth (GB/s) (Ratio)
system.am_network.routers0.throttle01.avg_useful_bandwidth         0.00                       # Average usefull (only data) bandwidth (GB/s) (Ratio)
system.am_network.routers0.throttle01.msg_count.Control::1            1                       (Unspecified)
system.am_network.routers0.throttle01.msg_bytes.Control::1            8                       (Unspecified)
system.am_network.routers1.percent_links_utilized     0.000000                       (Unspecified)
system.am_network.routers1.msg_count.Control::1            1                       (Unspecified)
system.am_network.routers1.msg_bytes.Control::1            8                       (Unspecified)
system.am_network.routers1.port_buffers1.m_msg_count            1                       # Number of messages passed the buffer (Count)
system.am_network.routers1.port_buffers1.m_buf_msgs     0.000000                       # Average number of messages in buffer ((Count/Tick))
system.am_network.routers1.port_buffers1.m_occupancy     0.000000                       # Average occupancy of buffer capacity ((Ratio/Tick))
system.am_network.routers1.power_state.pwrStateResidencyTicks::UNDEFINED 462398429000                       # Cumulative time (in ticks) in various power states (Tick)
system.am_network.routers1.throttle00.acc_link_utilization     0.500000                       # Accumulated link utilization (Count)
system.am_network.routers1.throttle00.link_utilization     0.000000                       # Average link utilization (Ratio)
system.am_network.routers1.throttle00.total_msg_count            1                       # Total number of messages forwarded by this switch (Count)
system.am_network.routers1.throttle00.total_msg_bytes            8                       # Total number of bytes forwarded by this switch (Byte)
system.am_network.routers1.throttle00.total_data_msg_bytes            0                       # Total number of data bytes forwarded by this switch (Byte)
system.am_network.routers1.throttle00.total_msg_wait_time            0                       # Total time spend forwarding messages (Tick)
system.am_network.routers1.throttle00.total_stall_cy            0                       # Total time spent blocked on any output link (Cycle)
system.am_network.routers1.throttle00.total_bw_sat_cy            0                       # Total time bandwidth was saturated on any output link (Cycle)
system.am_network.routers1.throttle00.avg_msg_wait_time            0                       # Average time a message took to be forwarded (Ratio)
system.am_network.routers1.throttle00.avg_bandwidth         0.00                       # Average bandwidth (GB/s) (Ratio)
system.am_network.routers1.throttle00.avg_useful_bandwidth         0.00                       # Average usefull (only data) bandwidth (GB/s) (Ratio)
system.am_network.routers1.throttle00.msg_count.Control::1            1                       (Unspecified)
system.am_network.routers1.throttle00.msg_bytes.Control::1            8                       (Unspecified)
system.am_network.routers1.throttle01.acc_link_utilization            0                       # Accumulated link utilization (Count)
system.am_network.routers1.throttle01.link_utilization            0                       # Average link utilization (Ratio)
system.am_network.routers1.throttle01.total_msg_count            0                       # Total number of messages forwarded by this switch (Count)
system.am_network.routers1.throttle01.total_msg_bytes            0                       # Total number of bytes forwarded by this switch (Byte)
system.am_network.routers1.throttle01.total_data_msg_bytes            0                       # Total number of data bytes forwarded by this switch (Byte)
system.am_network.routers1.throttle01.total_msg_wait_time            0                       # Total time spend forwarding messages (Tick)
system.am_network.routers1.throttle01.total_stall_cy            0                       # Total time spent blocked on any output link (Cycle)
system.am_network.routers1.throttle01.total_bw_sat_cy            0                       # Total time bandwidth was saturated on any output link (Cycle)
system.am_network.routers1.throttle01.avg_msg_wait_time          nan                       # Average time a message took to be forwarded (Ratio)
system.am_network.routers1.throttle01.avg_bandwidth         0.00                       # Average bandwidth (GB/s) (Ratio)
system.am_network.routers1.throttle01.avg_useful_bandwidth         0.00                       # Average usefull (only data) bandwidth (GB/s) (Ratio)
system.am_network.routers1.throttle02.acc_link_utilization            0                       # Accumulated link utilization (Count)
system.am_network.routers1.throttle02.link_utilization            0                       # Average link utilization (Ratio)
system.am_network.routers1.throttle02.total_msg_count            0                       # Total number of messages forwarded by this switch (Count)
system.am_network.routers1.throttle02.total_msg_bytes            0                       # Total number of bytes forwarded by this switch (Byte)
system.am_network.routers1.throttle02.total_data_msg_bytes            0                       # Total number of data bytes forwarded by this switch (Byte)
system.am_network.routers1.throttle02.total_msg_wait_time            0                       # Total time spend forwarding messages (Tick)
system.am_network.routers1.throttle02.total_stall_cy            0                       # Total time spent blocked on any output link (Cycle)
system.am_network.routers1.throttle02.total_bw_sat_cy            0                       # Total time bandwidth was saturated on any output link (Cycle)
system.am_network.routers1.throttle02.avg_msg_wait_time          nan                       # Average time a message took to be forwarded (Ratio)
system.am_network.routers1.throttle02.avg_bandwidth         0.00                       # Average bandwidth (GB/s) (Ratio)
system.am_network.routers1.throttle02.avg_useful_bandwidth         0.00                       # Average usefull (only data) bandwidth (GB/s) (Ratio)
system.am_network.routers2.percent_links_utilized     0.000000                       (Unspecified)
system.am_network.routers2.msg_count.Control::1            1                       (Unspecified)
system.am_network.routers2.msg_bytes.Control::1            8                       (Unspecified)
system.am_network.routers2.port_buffers5.m_msg_count            1                       # Number of messages passed the buffer (Count)
system.am_network.routers2.port_buffers5.m_buf_msgs     0.000000                       # Average number of messages in buffer ((Count/Tick))
system.am_network.routers2.port_buffers5.m_occupancy     0.000000                       # Average occupancy of buffer capacity ((Ratio/Tick))
system.am_network.routers2.power_state.pwrStateResidencyTicks::UNDEFINED 462398429000                       # Cumulative time (in ticks) in various power states (Tick)
system.am_network.routers2.throttle00.acc_link_utilization            0                       # Accumulated link utilization (Count)
system.am_network.routers2.throttle00.link_utilization            0                       # Average link utilization (Ratio)
system.am_network.routers2.throttle00.total_msg_count            0                       # Total number of messages forwarded by this switch (Count)
system.am_network.routers2.throttle00.total_msg_bytes            0                       # Total number of bytes forwarded by this switch (Byte)
system.am_network.routers2.throttle00.total_data_msg_bytes            0                       # Total number of data bytes forwarded by this switch (Byte)
system.am_network.routers2.throttle00.total_msg_wait_time            0                       # Total time spend forwarding messages (Tick)
system.am_network.routers2.throttle00.total_stall_cy            0                       # Total time spent blocked on any output link (Cycle)
system.am_network.routers2.throttle00.total_bw_sat_cy            0                       # Total time bandwidth was saturated on any output link (Cycle)
system.am_network.routers2.throttle00.avg_msg_wait_time          nan                       # Average time a message took to be forwarded (Ratio)
system.am_network.routers2.throttle00.avg_bandwidth         0.00                       # Average bandwidth (GB/s) (Ratio)
system.am_network.routers2.throttle00.avg_useful_bandwidth         0.00                       # Average usefull (only data) bandwidth (GB/s) (Ratio)
system.am_network.routers2.throttle01.acc_link_utilization            0                       # Accumulated link utilization (Count)
system.am_network.routers2.throttle01.link_utilization            0                       # Average link utilization (Ratio)
system.am_network.routers2.throttle01.total_msg_count            0                       # Total number of messages forwarded by this switch (Count)
system.am_network.routers2.throttle01.total_msg_bytes            0                       # Total number of bytes forwarded by this switch (Byte)
system.am_network.routers2.throttle01.total_data_msg_bytes            0                       # Total number of data bytes forwarded by this switch (Byte)
system.am_network.routers2.throttle01.total_msg_wait_time            0                       # Total time spend forwarding messages (Tick)
system.am_network.routers2.throttle01.total_stall_cy            0                       # Total time spent blocked on any output link (Cycle)
system.am_network.routers2.throttle01.total_bw_sat_cy            0                       # Total time bandwidth was saturated on any output link (Cycle)
system.am_network.routers2.throttle01.avg_msg_wait_time          nan                       # Average time a message took to be forwarded (Ratio)
system.am_network.routers2.throttle01.avg_bandwidth         0.00                       # Average bandwidth (GB/s) (Ratio)
system.am_network.routers2.throttle01.avg_useful_bandwidth         0.00                       # Average usefull (only data) bandwidth (GB/s) (Ratio)
system.am_network.routers2.throttle02.acc_link_utilization     0.500000                       # Accumulated link utilization (Count)
system.am_network.routers2.throttle02.link_utilization     0.000000                       # Average link utilization (Ratio)
system.am_network.routers2.throttle02.total_msg_count            1                       # Total number of messages forwarded by this switch (Count)
system.am_network.routers2.throttle02.total_msg_bytes            8                       # Total number of bytes forwarded by this switch (Byte)
system.am_network.routers2.throttle02.total_data_msg_bytes            0                       # Total number of data bytes forwarded by this switch (Byte)
system.am_network.routers2.throttle02.total_msg_wait_time            0                       # Total time spend forwarding messages (Tick)
system.am_network.routers2.throttle02.total_stall_cy            0                       # Total time spent blocked on any output link (Cycle)
system.am_network.routers2.throttle02.total_bw_sat_cy            0                       # Total time bandwidth was saturated on any output link (Cycle)
system.am_network.routers2.throttle02.avg_msg_wait_time            0                       # Average time a message took to be forwarded (Ratio)
system.am_network.routers2.throttle02.avg_bandwidth         0.00                       # Average bandwidth (GB/s) (Ratio)
system.am_network.routers2.throttle02.avg_useful_bandwidth         0.00                       # Average usefull (only data) bandwidth (GB/s) (Ratio)
system.am_network.routers2.throttle02.msg_count.Control::1            1                       (Unspecified)
system.am_network.routers2.throttle02.msg_bytes.Control::1            8                       (Unspecified)
system.am_network.routers3.percent_links_utilized     0.000000                       (Unspecified)
system.am_network.routers3.msg_count.Control::1            1                       (Unspecified)
system.am_network.routers3.msg_bytes.Control::1            8                       (Unspecified)
system.am_network.routers3.port_buffers1.m_msg_count            1                       # Number of messages passed the buffer (Count)
system.am_network.routers3.port_buffers1.m_buf_msgs     0.000000                       # Average number of messages in buffer ((Count/Tick))
system.am_network.routers3.port_buffers1.m_occupancy     0.000000                       # Average occupancy of buffer capacity ((Ratio/Tick))
system.am_network.routers3.power_state.pwrStateResidencyTicks::UNDEFINED 462398429000                       # Cumulative time (in ticks) in various power states (Tick)
system.am_network.routers3.throttle00.acc_link_utilization     0.500000                       # Accumulated link utilization (Count)
system.am_network.routers3.throttle00.link_utilization     0.000000                       # Average link utilization (Ratio)
system.am_network.routers3.throttle00.total_msg_count            1                       # Total number of messages forwarded by this switch (Count)
system.am_network.routers3.throttle00.total_msg_bytes            8                       # Total number of bytes forwarded by this switch (Byte)
system.am_network.routers3.throttle00.total_data_msg_bytes            0                       # Total number of data bytes forwarded by this switch (Byte)
system.am_network.routers3.throttle00.total_msg_wait_time            0                       # Total time spend forwarding messages (Tick)
system.am_network.routers3.throttle00.total_stall_cy            0                       # Total time spent blocked on any output link (Cycle)
system.am_network.routers3.throttle00.total_bw_sat_cy            0                       # Total time bandwidth was saturated on any output link (Cycle)
system.am_network.routers3.throttle00.avg_msg_wait_time            0                       # Average time a message took to be forwarded (Ratio)
system.am_network.routers3.throttle00.avg_bandwidth         0.00                       # Average bandwidth (GB/s) (Ratio)
system.am_network.routers3.throttle00.avg_useful_bandwidth         0.00                       # Average usefull (only data) bandwidth (GB/s) (Ratio)
system.am_network.routers3.throttle00.msg_count.Control::1            1                       (Unspecified)
system.am_network.routers3.throttle00.msg_bytes.Control::1            8                       (Unspecified)
system.am_network.routers3.throttle01.acc_link_utilization            0                       # Accumulated link utilization (Count)
system.am_network.routers3.throttle01.link_utilization            0                       # Average link utilization (Ratio)
system.am_network.routers3.throttle01.total_msg_count            0                       # Total number of messages forwarded by this switch (Count)
system.am_network.routers3.throttle01.total_msg_bytes            0                       # Total number of bytes forwarded by this switch (Byte)
system.am_network.routers3.throttle01.total_data_msg_bytes            0                       # Total number of data bytes forwarded by this switch (Byte)
system.am_network.routers3.throttle01.total_msg_wait_time            0                       # Total time spend forwarding messages (Tick)
system.am_network.routers3.throttle01.total_stall_cy            0                       # Total time spent blocked on any output link (Cycle)
system.am_network.routers3.throttle01.total_bw_sat_cy            0                       # Total time bandwidth was saturated on any output link (Cycle)
system.am_network.routers3.throttle01.avg_msg_wait_time          nan                       # Average time a message took to be forwarded (Ratio)
system.am_network.routers3.throttle01.avg_bandwidth         0.00                       # Average bandwidth (GB/s) (Ratio)
system.am_network.routers3.throttle01.avg_useful_bandwidth         0.00                       # Average usefull (only data) bandwidth (GB/s) (Ratio)
system.clk_domain.clock                          1000                       # Clock period in ticks (Tick)
system.clk_domain.voltage_domain.voltage            1                       # Voltage in Volts (Volt)
system.cpu0.numCycles                       462398429                       # Number of cpu cycles simulated (Cycle)
system.cpu0.numWorkItemsStarted                     0                       # Number of work items this cpu started (Count)
system.cpu0.numWorkItemsCompleted                   0                       # Number of work items this cpu completed (Count)
system.cpu0.exec_context.thread_0.numInsts     44579825                       # Number of instructions committed (Count)
system.cpu0.exec_context.thread_0.numOps     45104169                       # Number of ops (including micro ops) committed (Count)
system.cpu0.exec_context.thread_0.numIntAluAccesses     43040365                       # Number of integer alu accesses (Count)
system.cpu0.exec_context.thread_0.numFpAluAccesses           12                       # Number of float alu accesses (Count)
system.cpu0.exec_context.thread_0.numVecAluAccesses            0                       # Number of vector alu accesses (Count)
system.cpu0.exec_context.thread_0.numCallsReturns      5245703                       # Number of times a function call or return occured (Count)
system.cpu0.exec_context.thread_0.numCondCtrlInsts      6024333                       # Number of instructions that are conditional controls (Count)
system.cpu0.exec_context.thread_0.numIntInsts     43040365                       # Number of integer instructions (Count)
system.cpu0.exec_context.thread_0.numFpInsts           12                       # Number of float instructions (Count)
system.cpu0.exec_context.thread_0.numVecInsts            0                       # Number of vector instructions (Count)
system.cpu0.exec_context.thread_0.numIntRegReads     38840200                       # Number of times the integer registers were read (Count)
system.cpu0.exec_context.thread_0.numIntRegWrites     30713496                       # Number of times the integer registers were written (Count)
system.cpu0.exec_context.thread_0.numFpRegReads           12                       # Number of times the floating registers were read (Count)
system.cpu0.exec_context.thread_0.numFpRegWrites            0                       # Number of times the floating registers were written (Count)
system.cpu0.exec_context.thread_0.numVecRegReads            0                       # Number of times the vector registers were read (Count)
system.cpu0.exec_context.thread_0.numVecRegWrites            0                       # Number of times the vector registers were written (Count)
system.cpu0.exec_context.thread_0.numVecPredRegReads            0                       # Number of times the predicate registers were read (Count)
system.cpu0.exec_context.thread_0.numVecPredRegWrites            0                       # Number of times the predicate registers were written (Count)
system.cpu0.exec_context.thread_0.numMiscRegReads      1048653                       # Number of times the Misc registers were read (Count)
system.cpu0.exec_context.thread_0.numMiscRegWrites            7                       # Number of times the Misc registers were written (Count)
system.cpu0.exec_context.thread_0.numMemRefs     11559076                       # Number of memory refs (Count)
system.cpu0.exec_context.thread_0.numLoadInsts      6830908                       # Number of load instructions (Count)
system.cpu0.exec_context.thread_0.numStoreInsts      4728168                       # Number of store instructions (Count)
system.cpu0.exec_context.thread_0.numIdleCycles 274629797.000406                       # Number of idle cycles (Cycle)
system.cpu0.exec_context.thread_0.numBusyCycles 187768631.999594                       # Number of busy cycles (Cycle)
system.cpu0.exec_context.thread_0.notIdleFraction     0.406075                       # Percentage of non-idle cycles (Ratio)
system.cpu0.exec_context.thread_0.idleFraction     0.593925                       # Percentage of idle cycles (Ratio)
system.cpu0.exec_context.thread_0.numBranches     12285309                       # Number of branches fetched (Count)
system.cpu0.exec_context.thread_0.statExecutedInstType::No_OpClass      2097356      4.54%      4.54% # Class of executed instruction. (Count)
system.cpu0.exec_context.thread_0.statExecutedInstType::IntAlu     32496331     70.41%     74.95% # Class of executed instruction. (Count)
system.cpu0.exec_context.thread_0.statExecutedInstType::IntMult           19      0.00%     74.95% # Class of executed instruction. (Count)
system.cpu0.exec_context.thread_0.statExecutedInstType::IntDiv            9      0.00%     74.95% # Class of executed instruction. (Count)
system.cpu0.exec_context.thread_0.statExecutedInstType::FloatAdd            0      0.00%     74.95% # Class of executed instruction. (Count)
system.cpu0.exec_context.thread_0.statExecutedInstType::FloatCmp            0      0.00%     74.95% # Class of executed instruction. (Count)
system.cpu0.exec_context.thread_0.statExecutedInstType::FloatCvt            0      0.00%     74.95% # Class of executed instruction. (Count)
system.cpu0.exec_context.thread_0.statExecutedInstType::FloatMult            0      0.00%     74.95% # Class of executed instruction. (Count)
system.cpu0.exec_context.thread_0.statExecutedInstType::FloatMultAcc            0      0.00%     74.95% # Class of executed instruction. (Count)
system.cpu0.exec_context.thread_0.statExecutedInstType::FloatDiv            0      0.00%     74.95% # Class of executed instruction. (Count)
system.cpu0.exec_context.thread_0.statExecutedInstType::FloatMisc            0      0.00%     74.95% # Class of executed instruction. (Count)
system.cpu0.exec_context.thread_0.statExecutedInstType::FloatSqrt            0      0.00%     74.95% # Class of executed instruction. (Count)
system.cpu0.exec_context.thread_0.statExecutedInstType::SimdAdd            0      0.00%     74.95% # Class of executed instruction. (Count)
system.cpu0.exec_context.thread_0.statExecutedInstType::SimdAddAcc            0      0.00%     74.95% # Class of executed instruction. (Count)
system.cpu0.exec_context.thread_0.statExecutedInstType::SimdAlu            0      0.00%     74.95% # Class of executed instruction. (Count)
system.cpu0.exec_context.thread_0.statExecutedInstType::SimdCmp            0      0.00%     74.95% # Class of executed instruction. (Count)
system.cpu0.exec_context.thread_0.statExecutedInstType::SimdCvt            0      0.00%     74.95% # Class of executed instruction. (Count)
system.cpu0.exec_context.thread_0.statExecutedInstType::SimdMisc            0      0.00%     74.95% # Class of executed instruction. (Count)
system.cpu0.exec_context.thread_0.statExecutedInstType::SimdMult            0      0.00%     74.95% # Class of executed instruction. (Count)
system.cpu0.exec_context.thread_0.statExecutedInstType::SimdMultAcc            0      0.00%     74.95% # Class of executed instruction. (Count)
system.cpu0.exec_context.thread_0.statExecutedInstType::SimdShift            0      0.00%     74.95% # Class of executed instruction. (Count)
system.cpu0.exec_context.thread_0.statExecutedInstType::SimdShiftAcc            0      0.00%     74.95% # Class of executed instruction. (Count)
system.cpu0.exec_context.thread_0.statExecutedInstType::SimdDiv            0      0.00%     74.95% # Class of executed instruction. (Count)
system.cpu0.exec_context.thread_0.statExecutedInstType::SimdSqrt            0      0.00%     74.95% # Class of executed instruction. (Count)
system.cpu0.exec_context.thread_0.statExecutedInstType::SimdFloatAdd            0      0.00%     74.95% # Class of executed instruction. (Count)
system.cpu0.exec_context.thread_0.statExecutedInstType::SimdFloatAlu            0      0.00%     74.95% # Class of executed instruction. (Count)
system.cpu0.exec_context.thread_0.statExecutedInstType::SimdFloatCmp            0      0.00%     74.95% # Class of executed instruction. (Count)
system.cpu0.exec_context.thread_0.statExecutedInstType::SimdFloatCvt            0      0.00%     74.95% # Class of executed instruction. (Count)
system.cpu0.exec_context.thread_0.statExecutedInstType::SimdFloatDiv            0      0.00%     74.95% # Class of executed instruction. (Count)
system.cpu0.exec_context.thread_0.statExecutedInstType::SimdFloatMisc            0      0.00%     74.95% # Class of executed instruction. (Count)
system.cpu0.exec_context.thread_0.statExecutedInstType::SimdFloatMult            0      0.00%     74.95% # Class of executed instruction. (Count)
system.cpu0.exec_context.thread_0.statExecutedInstType::SimdFloatMultAcc            0      0.00%     74.95% # Class of executed instruction. (Count)
system.cpu0.exec_context.thread_0.statExecutedInstType::SimdFloatSqrt            0      0.00%     74.95% # Class of executed instruction. (Count)
system.cpu0.exec_context.thread_0.statExecutedInstType::SimdReduceAdd            0      0.00%     74.95% # Class of executed instruction. (Count)
system.cpu0.exec_context.thread_0.statExecutedInstType::SimdReduceAlu            0      0.00%     74.95% # Class of executed instruction. (Count)
system.cpu0.exec_context.thread_0.statExecutedInstType::SimdReduceCmp            0      0.00%     74.95% # Class of executed instruction. (Count)
system.cpu0.exec_context.thread_0.statExecutedInstType::SimdFloatReduceAdd            0      0.00%     74.95% # Class of executed instruction. (Count)
system.cpu0.exec_context.thread_0.statExecutedInstType::SimdFloatReduceCmp            0      0.00%     74.95% # Class of executed instruction. (Count)
system.cpu0.exec_context.thread_0.statExecutedInstType::SimdAes            0      0.00%     74.95% # Class of executed instruction. (Count)
system.cpu0.exec_context.thread_0.statExecutedInstType::SimdAesMix            0      0.00%     74.95% # Class of executed instruction. (Count)
system.cpu0.exec_context.thread_0.statExecutedInstType::SimdSha1Hash            0      0.00%     74.95% # Class of executed instruction. (Count)
system.cpu0.exec_context.thread_0.statExecutedInstType::SimdSha1Hash2            0      0.00%     74.95% # Class of executed instruction. (Count)
system.cpu0.exec_context.thread_0.statExecutedInstType::SimdSha256Hash            0      0.00%     74.95% # Class of executed instruction. (Count)
system.cpu0.exec_context.thread_0.statExecutedInstType::SimdSha256Hash2            0      0.00%     74.95% # Class of executed instruction. (Count)
system.cpu0.exec_context.thread_0.statExecutedInstType::SimdShaSigma2            0      0.00%     74.95% # Class of executed instruction. (Count)
system.cpu0.exec_context.thread_0.statExecutedInstType::SimdShaSigma3            0      0.00%     74.95% # Class of executed instruction. (Count)
system.cpu0.exec_context.thread_0.statExecutedInstType::SimdPredAlu            0      0.00%     74.95% # Class of executed instruction. (Count)
system.cpu0.exec_context.thread_0.statExecutedInstType::MemRead      7879553     17.07%     92.03% # Class of executed instruction. (Count)
system.cpu0.exec_context.thread_0.statExecutedInstType::MemWrite      3679511      7.97%    100.00% # Class of executed instruction. (Count)
system.cpu0.exec_context.thread_0.statExecutedInstType::FloatMemRead            0      0.00%    100.00% # Class of executed instruction. (Count)
system.cpu0.exec_context.thread_0.statExecutedInstType::FloatMemWrite           12      0.00%    100.00% # Class of executed instruction. (Count)
system.cpu0.exec_context.thread_0.statExecutedInstType::IprAccess            0      0.00%    100.00% # Class of executed instruction. (Count)
system.cpu0.exec_context.thread_0.statExecutedInstType::InstPrefetch            0      0.00%    100.00% # Class of executed instruction. (Count)
system.cpu0.exec_context.thread_0.statExecutedInstType::total     46152791                       # Class of executed instruction. (Count)
system.cpu0.mmu.dtb.readHits                        0                       # read hits (Count)
system.cpu0.mmu.dtb.readMisses                      0                       # read misses (Count)
system.cpu0.mmu.dtb.readAccesses                    0                       # read accesses (Count)
system.cpu0.mmu.dtb.writeHits                       0                       # write hits (Count)
system.cpu0.mmu.dtb.writeMisses                     0                       # write misses (Count)
system.cpu0.mmu.dtb.writeAccesses                   0                       # write accesses (Count)
system.cpu0.mmu.dtb.hits                            0                       # Total TLB (read and write) hits (Count)
system.cpu0.mmu.dtb.misses                          0                       # Total TLB (read and write) misses (Count)
system.cpu0.mmu.dtb.accesses                        0                       # Total TLB (read and write) accesses (Count)
system.cpu0.mmu.dtb.walker.power_state.pwrStateResidencyTicks::UNDEFINED 462398429000                       # Cumulative time (in ticks) in various power states (Tick)
system.cpu0.mmu.itb.readHits                        0                       # read hits (Count)
system.cpu0.mmu.itb.readMisses                      0                       # read misses (Count)
system.cpu0.mmu.itb.readAccesses                    0                       # read accesses (Count)
system.cpu0.mmu.itb.writeHits                       0                       # write hits (Count)
system.cpu0.mmu.itb.writeMisses                     0                       # write misses (Count)
system.cpu0.mmu.itb.writeAccesses                   0                       # write accesses (Count)
system.cpu0.mmu.itb.hits                            0                       # Total TLB (read and write) hits (Count)
system.cpu0.mmu.itb.misses                          0                       # Total TLB (read and write) misses (Count)
system.cpu0.mmu.itb.accesses                        0                       # Total TLB (read and write) accesses (Count)
system.cpu0.mmu.itb.walker.power_state.pwrStateResidencyTicks::UNDEFINED 462398429000                       # Cumulative time (in ticks) in various power states (Tick)
system.cpu0.power_state.numTransitions        1048580                       # Number of power state transitions (Count)
system.cpu0.power_state.ticksClkGated::samples       524290                       # Distribution of time spent in the clock gated state (Tick)
system.cpu0.power_state.ticksClkGated::mean 523812.769650                       # Distribution of time spent in the clock gated state (Tick)
system.cpu0.power_state.ticksClkGated::stdev 46055.041240                       # Distribution of time spent in the clock gated state (Tick)
system.cpu0.power_state.ticksClkGated::1000-5e+10       524290    100.00%    100.00% # Distribution of time spent in the clock gated state (Tick)
system.cpu0.power_state.ticksClkGated::min_value       215000                       # Distribution of time spent in the clock gated state (Tick)
system.cpu0.power_state.ticksClkGated::max_value      2972000                       # Distribution of time spent in the clock gated state (Tick)
system.cpu0.power_state.ticksClkGated::total       524290                       # Distribution of time spent in the clock gated state (Tick)
system.cpu0.power_state.pwrStateResidencyTicks::ON 187768632000                       # Cumulative time (in ticks) in various power states (Tick)
system.cpu0.power_state.pwrStateResidencyTicks::CLK_GATED 274629797000                       # Cumulative time (in ticks) in various power states (Tick)
system.cpu0.thread_0.numInsts                       0                       # Number of Instructions committed (Count)
system.cpu0.thread_0.numOps                         0                       # Number of Ops committed (Count)
system.cpu0.thread_0.numMemRefs                     0                       # Number of Memory References (Count)
system.cpu0.workload.numSyscalls              1048613                       # Number of system calls (Count)
system.cpu1.numCycles                       462385570                       # Number of cpu cycles simulated (Cycle)
system.cpu1.numWorkItemsStarted                     0                       # Number of work items this cpu started (Count)
system.cpu1.numWorkItemsCompleted                   0                       # Number of work items this cpu completed (Count)
system.cpu1.exec_context.thread_0.numInsts     44525410                       # Number of instructions committed (Count)
system.cpu1.exec_context.thread_0.numOps     45049706                       # Number of ops (including micro ops) committed (Count)
system.cpu1.exec_context.thread_0.numIntAluAccesses     42986339                       # Number of integer alu accesses (Count)
system.cpu1.exec_context.thread_0.numFpAluAccesses           12                       # Number of float alu accesses (Count)
system.cpu1.exec_context.thread_0.numVecAluAccesses            0                       # Number of vector alu accesses (Count)
system.cpu1.exec_context.thread_0.numCallsReturns      5242960                       # Number of times a function call or return occured (Count)
system.cpu1.exec_context.thread_0.numCondCtrlInsts      6017334                       # Number of instructions that are conditional controls (Count)
system.cpu1.exec_context.thread_0.numIntInsts     42986339                       # Number of integer instructions (Count)
system.cpu1.exec_context.thread_0.numFpInsts           12                       # Number of float instructions (Count)
system.cpu1.exec_context.thread_0.numVecInsts            0                       # Number of vector instructions (Count)
system.cpu1.exec_context.thread_0.numIntRegReads     38774984                       # Number of times the integer registers were read (Count)
system.cpu1.exec_context.thread_0.numIntRegWrites     30677212                       # Number of times the integer registers were written (Count)
system.cpu1.exec_context.thread_0.numFpRegReads           12                       # Number of times the floating registers were read (Count)
system.cpu1.exec_context.thread_0.numFpRegWrites            0                       # Number of times the floating registers were written (Count)
system.cpu1.exec_context.thread_0.numVecRegReads            0                       # Number of times the vector registers were read (Count)
system.cpu1.exec_context.thread_0.numVecRegWrites            0                       # Number of times the vector registers were written (Count)
system.cpu1.exec_context.thread_0.numVecPredRegReads            0                       # Number of times the predicate registers were read (Count)
system.cpu1.exec_context.thread_0.numVecPredRegWrites            0                       # Number of times the predicate registers were written (Count)
system.cpu1.exec_context.thread_0.numMiscRegReads      1048619                       # Number of times the Misc registers were read (Count)
system.cpu1.exec_context.thread_0.numMiscRegWrites            7                       # Number of times the Misc registers were written (Count)
system.cpu1.exec_context.thread_0.numMemRefs     11539195                       # Number of memory refs (Count)
system.cpu1.exec_context.thread_0.numLoadInsts      6820305                       # Number of load instructions (Count)
system.cpu1.exec_context.thread_0.numStoreInsts      4718890                       # Number of store instructions (Count)
system.cpu1.exec_context.thread_0.numIdleCycles 343324337.107898                       # Number of idle cycles (Cycle)
system.cpu1.exec_context.thread_0.numBusyCycles 119061232.892102                       # Number of busy cycles (Cycle)
system.cpu1.exec_context.thread_0.notIdleFraction     0.257493                       # Percentage of non-idle cycles (Ratio)
system.cpu1.exec_context.thread_0.idleFraction     0.742507                       # Percentage of idle cycles (Ratio)
system.cpu1.exec_context.thread_0.numBranches     12275076                       # Number of branches fetched (Count)
system.cpu1.exec_context.thread_0.statExecutedInstType::No_OpClass      2097183      4.55%      4.55% # Class of executed instruction. (Count)
system.cpu1.exec_context.thread_0.statExecutedInstType::IntAlu     32461909     70.42%     74.97% # Class of executed instruction. (Count)
system.cpu1.exec_context.thread_0.statExecutedInstType::IntMult            0      0.00%     74.97% # Class of executed instruction. (Count)
system.cpu1.exec_context.thread_0.statExecutedInstType::IntDiv            2      0.00%     74.97% # Class of executed instruction. (Count)
system.cpu1.exec_context.thread_0.statExecutedInstType::FloatAdd            0      0.00%     74.97% # Class of executed instruction. (Count)
system.cpu1.exec_context.thread_0.statExecutedInstType::FloatCmp            0      0.00%     74.97% # Class of executed instruction. (Count)
system.cpu1.exec_context.thread_0.statExecutedInstType::FloatCvt            0      0.00%     74.97% # Class of executed instruction. (Count)
system.cpu1.exec_context.thread_0.statExecutedInstType::FloatMult            0      0.00%     74.97% # Class of executed instruction. (Count)
system.cpu1.exec_context.thread_0.statExecutedInstType::FloatMultAcc            0      0.00%     74.97% # Class of executed instruction. (Count)
system.cpu1.exec_context.thread_0.statExecutedInstType::FloatDiv            0      0.00%     74.97% # Class of executed instruction. (Count)
system.cpu1.exec_context.thread_0.statExecutedInstType::FloatMisc            0      0.00%     74.97% # Class of executed instruction. (Count)
system.cpu1.exec_context.thread_0.statExecutedInstType::FloatSqrt            0      0.00%     74.97% # Class of executed instruction. (Count)
system.cpu1.exec_context.thread_0.statExecutedInstType::SimdAdd            0      0.00%     74.97% # Class of executed instruction. (Count)
system.cpu1.exec_context.thread_0.statExecutedInstType::SimdAddAcc            0      0.00%     74.97% # Class of executed instruction. (Count)
system.cpu1.exec_context.thread_0.statExecutedInstType::SimdAlu            0      0.00%     74.97% # Class of executed instruction. (Count)
system.cpu1.exec_context.thread_0.statExecutedInstType::SimdCmp            0      0.00%     74.97% # Class of executed instruction. (Count)
system.cpu1.exec_context.thread_0.statExecutedInstType::SimdCvt            0      0.00%     74.97% # Class of executed instruction. (Count)
system.cpu1.exec_context.thread_0.statExecutedInstType::SimdMisc            0      0.00%     74.97% # Class of executed instruction. (Count)
system.cpu1.exec_context.thread_0.statExecutedInstType::SimdMult            0      0.00%     74.97% # Class of executed instruction. (Count)
system.cpu1.exec_context.thread_0.statExecutedInstType::SimdMultAcc            0      0.00%     74.97% # Class of executed instruction. (Count)
system.cpu1.exec_context.thread_0.statExecutedInstType::SimdShift            0      0.00%     74.97% # Class of executed instruction. (Count)
system.cpu1.exec_context.thread_0.statExecutedInstType::SimdShiftAcc            0      0.00%     74.97% # Class of executed instruction. (Count)
system.cpu1.exec_context.thread_0.statExecutedInstType::SimdDiv            0      0.00%     74.97% # Class of executed instruction. (Count)
system.cpu1.exec_context.thread_0.statExecutedInstType::SimdSqrt            0      0.00%     74.97% # Class of executed instruction. (Count)
system.cpu1.exec_context.thread_0.statExecutedInstType::SimdFloatAdd            0      0.00%     74.97% # Class of executed instruction. (Count)
system.cpu1.exec_context.thread_0.statExecutedInstType::SimdFloatAlu            0      0.00%     74.97% # Class of executed instruction. (Count)
system.cpu1.exec_context.thread_0.statExecutedInstType::SimdFloatCmp            0      0.00%     74.97% # Class of executed instruction. (Count)
system.cpu1.exec_context.thread_0.statExecutedInstType::SimdFloatCvt            0      0.00%     74.97% # Class of executed instruction. (Count)
system.cpu1.exec_context.thread_0.statExecutedInstType::SimdFloatDiv            0      0.00%     74.97% # Class of executed instruction. (Count)
system.cpu1.exec_context.thread_0.statExecutedInstType::SimdFloatMisc            0      0.00%     74.97% # Class of executed instruction. (Count)
system.cpu1.exec_context.thread_0.statExecutedInstType::SimdFloatMult            0      0.00%     74.97% # Class of executed instruction. (Count)
system.cpu1.exec_context.thread_0.statExecutedInstType::SimdFloatMultAcc            0      0.00%     74.97% # Class of executed instruction. (Count)
system.cpu1.exec_context.thread_0.statExecutedInstType::SimdFloatSqrt            0      0.00%     74.97% # Class of executed instruction. (Count)
system.cpu1.exec_context.thread_0.statExecutedInstType::SimdReduceAdd            0      0.00%     74.97% # Class of executed instruction. (Count)
system.cpu1.exec_context.thread_0.statExecutedInstType::SimdReduceAlu            0      0.00%     74.97% # Class of executed instruction. (Count)
system.cpu1.exec_context.thread_0.statExecutedInstType::SimdReduceCmp            0      0.00%     74.97% # Class of executed instruction. (Count)
system.cpu1.exec_context.thread_0.statExecutedInstType::SimdFloatReduceAdd            0      0.00%     74.97% # Class of executed instruction. (Count)
system.cpu1.exec_context.thread_0.statExecutedInstType::SimdFloatReduceCmp            0      0.00%     74.97% # Class of executed instruction. (Count)
system.cpu1.exec_context.thread_0.statExecutedInstType::SimdAes            0      0.00%     74.97% # Class of executed instruction. (Count)
system.cpu1.exec_context.thread_0.statExecutedInstType::SimdAesMix            0      0.00%     74.97% # Class of executed instruction. (Count)
system.cpu1.exec_context.thread_0.statExecutedInstType::SimdSha1Hash            0      0.00%     74.97% # Class of executed instruction. (Count)
system.cpu1.exec_context.thread_0.statExecutedInstType::SimdSha1Hash2            0      0.00%     74.97% # Class of executed instruction. (Count)
system.cpu1.exec_context.thread_0.statExecutedInstType::SimdSha256Hash            0      0.00%     74.97% # Class of executed instruction. (Count)
system.cpu1.exec_context.thread_0.statExecutedInstType::SimdSha256Hash2            0      0.00%     74.97% # Class of executed instruction. (Count)
system.cpu1.exec_context.thread_0.statExecutedInstType::SimdShaSigma2            0      0.00%     74.97% # Class of executed instruction. (Count)
system.cpu1.exec_context.thread_0.statExecutedInstType::SimdShaSigma3            0      0.00%     74.97% # Class of executed instruction. (Count)
system.cpu1.exec_context.thread_0.statExecutedInstType::SimdPredAlu            0      0.00%     74.97% # Class of executed instruction. (Count)
system.cpu1.exec_context.thread_0.statExecutedInstType::MemRead      7868891     17.07%     92.04% # Class of executed instruction. (Count)
system.cpu1.exec_context.thread_0.statExecutedInstType::MemWrite      3670292      7.96%    100.00% # Class of executed instruction. (Count)
system.cpu1.exec_context.thread_0.statExecutedInstType::FloatMemRead            0      0.00%    100.00% # Class of executed instruction. (Count)
system.cpu1.exec_context.thread_0.statExecutedInstType::FloatMemWrite           12      0.00%    100.00% # Class of executed instruction. (Count)
system.cpu1.exec_context.thread_0.statExecutedInstType::IprAccess            0      0.00%    100.00% # Class of executed instruction. (Count)
system.cpu1.exec_context.thread_0.statExecutedInstType::InstPrefetch            0      0.00%    100.00% # Class of executed instruction. (Count)
system.cpu1.exec_context.thread_0.statExecutedInstType::total     46098289                       # Class of executed instruction. (Count)
system.cpu1.mmu.dtb.readHits                        0                       # read hits (Count)
system.cpu1.mmu.dtb.readMisses                      0                       # read misses (Count)
system.cpu1.mmu.dtb.readAccesses                    0                       # read accesses (Count)
system.cpu1.mmu.dtb.writeHits                       0                       # write hits (Count)
system.cpu1.mmu.dtb.writeMisses                     0                       # write misses (Count)
system.cpu1.mmu.dtb.writeAccesses                   0                       # write accesses (Count)
system.cpu1.mmu.dtb.hits                            0                       # Total TLB (read and write) hits (Count)
system.cpu1.mmu.dtb.misses                          0                       # Total TLB (read and write) misses (Count)
system.cpu1.mmu.dtb.accesses                        0                       # Total TLB (read and write) accesses (Count)
system.cpu1.mmu.dtb.walker.power_state.pwrStateResidencyTicks::UNDEFINED 462398429000                       # Cumulative time (in ticks) in various power states (Tick)
system.cpu1.mmu.itb.readHits                        0                       # read hits (Count)
system.cpu1.mmu.itb.readMisses                      0                       # read misses (Count)
system.cpu1.mmu.itb.readAccesses                    0                       # read accesses (Count)
system.cpu1.mmu.itb.writeHits                       0                       # write hits (Count)
system.cpu1.mmu.itb.writeMisses                     0                       # write misses (Count)
system.cpu1.mmu.itb.writeAccesses                   0                       # write accesses (Count)
system.cpu1.mmu.itb.hits                            0                       # Total TLB (read and write) hits (Count)
system.cpu1.mmu.itb.misses                          0                       # Total TLB (read and write) misses (Count)
system.cpu1.mmu.itb.accesses                        0                       # Total TLB (read and write) accesses (Count)
system.cpu1.mmu.itb.walker.power_state.pwrStateResidencyTicks::UNDEFINED 462398429000                       # Cumulative time (in ticks) in various power states (Tick)
system.cpu1.power_state.numTransitions        1048576                       # Number of power state transitions (Count)
system.cpu1.power_state.ticksClkGated::samples       524288                       # Distribution of time spent in the clock gated state (Tick)
system.cpu1.power_state.ticksClkGated::mean 654488.887787                       # Distribution of time spent in the clock gated state (Tick)
system.cpu1.power_state.ticksClkGated::stdev 61358.560076                       # Distribution of time spent in the clock gated state (Tick)
system.cpu1.power_state.ticksClkGated::1000-5e+10       524288    100.00%    100.00% # Distribution of time spent in the clock gated state (Tick)
system.cpu1.power_state.ticksClkGated::min_value       144000                       # Distribution of time spent in the clock gated state (Tick)
system.cpu1.power_state.ticksClkGated::max_value      1757000                       # Distribution of time spent in the clock gated state (Tick)
system.cpu1.power_state.ticksClkGated::total       524288                       # Distribution of time spent in the clock gated state (Tick)
system.cpu1.power_state.pwrStateResidencyTicks::ON 119257759000                       # Cumulative time (in ticks) in various power states (Tick)
system.cpu1.power_state.pwrStateResidencyTicks::CLK_GATED 343140670000                       # Cumulative time (in ticks) in various power states (Tick)
system.cpu1.thread_0.numInsts                       0                       # Number of Instructions committed (Count)
system.cpu1.thread_0.numOps                         0                       # Number of Ops committed (Count)
system.cpu1.thread_0.numMemRefs                     0                       # Number of Memory References (Count)
system.cpu2.numCycles                       462385248                       # Number of cpu cycles simulated (Cycle)
system.cpu2.numWorkItemsStarted                     0                       # Number of work items this cpu started (Count)
system.cpu2.numWorkItemsCompleted                   0                       # Number of work items this cpu completed (Count)
system.cpu2.exec_context.thread_0.numInsts     44524246                       # Number of instructions committed (Count)
system.cpu2.exec_context.thread_0.numOps     45048542                       # Number of ops (including micro ops) committed (Count)
system.cpu2.exec_context.thread_0.numIntAluAccesses     42985191                       # Number of integer alu accesses (Count)
system.cpu2.exec_context.thread_0.numFpAluAccesses           12                       # Number of float alu accesses (Count)
system.cpu2.exec_context.thread_0.numVecAluAccesses            0                       # Number of vector alu accesses (Count)
system.cpu2.exec_context.thread_0.numCallsReturns      5242917                       # Number of times a function call or return occured (Count)
system.cpu2.exec_context.thread_0.numCondCtrlInsts      6016902                       # Number of instructions that are conditional controls (Count)
system.cpu2.exec_context.thread_0.numIntInsts     42985191                       # Number of integer instructions (Count)
system.cpu2.exec_context.thread_0.numFpInsts           12                       # Number of float instructions (Count)
system.cpu2.exec_context.thread_0.numVecInsts            0                       # Number of vector instructions (Count)
system.cpu2.exec_context.thread_0.numIntRegReads     38773919                       # Number of times the integer registers were read (Count)
system.cpu2.exec_context.thread_0.numIntRegWrites     30676533                       # Number of times the integer registers were written (Count)
system.cpu2.exec_context.thread_0.numFpRegReads           12                       # Number of times the floating registers were read (Count)
system.cpu2.exec_context.thread_0.numFpRegWrites            0                       # Number of times the floating registers were written (Count)
system.cpu2.exec_context.thread_0.numVecRegReads            0                       # Number of times the vector registers were read (Count)
system.cpu2.exec_context.thread_0.numVecRegWrites            0                       # Number of times the vector registers were written (Count)
system.cpu2.exec_context.thread_0.numVecPredRegReads            0                       # Number of times the predicate registers were read (Count)
system.cpu2.exec_context.thread_0.numVecPredRegWrites            0                       # Number of times the predicate registers were written (Count)
system.cpu2.exec_context.thread_0.numMiscRegReads      1048603                       # Number of times the Misc registers were read (Count)
system.cpu2.exec_context.thread_0.numMiscRegWrites            7                       # Number of times the Misc registers were written (Count)
system.cpu2.exec_context.thread_0.numMemRefs     11538738                       # Number of memory refs (Count)
system.cpu2.exec_context.thread_0.numLoadInsts      6819865                       # Number of load instructions (Count)
system.cpu2.exec_context.thread_0.numStoreInsts      4718873                       # Number of store instructions (Count)
system.cpu2.exec_context.thread_0.numIdleCycles 274811192.086286                       # Number of idle cycles (Cycle)
system.cpu2.exec_context.thread_0.numBusyCycles 187574055.913714                       # Number of busy cycles (Cycle)
system.cpu2.exec_context.thread_0.notIdleFraction     0.405666                       # Percentage of non-idle cycles (Ratio)
system.cpu2.exec_context.thread_0.idleFraction     0.594334                       # Percentage of idle cycles (Ratio)
system.cpu2.exec_context.thread_0.numBranches     12274585                       # Number of branches fetched (Count)
system.cpu2.exec_context.thread_0.statExecutedInstType::No_OpClass      2097166      4.55%      4.55% # Class of executed instruction. (Count)
system.cpu2.exec_context.thread_0.statExecutedInstType::IntAlu     32461199     70.42%     74.97% # Class of executed instruction. (Count)
system.cpu2.exec_context.thread_0.statExecutedInstType::IntMult            0      0.00%     74.97% # Class of executed instruction. (Count)
system.cpu2.exec_context.thread_0.statExecutedInstType::IntDiv            2      0.00%     74.97% # Class of executed instruction. (Count)
system.cpu2.exec_context.thread_0.statExecutedInstType::FloatAdd            0      0.00%     74.97% # Class of executed instruction. (Count)
system.cpu2.exec_context.thread_0.statExecutedInstType::FloatCmp            0      0.00%     74.97% # Class of executed instruction. (Count)
system.cpu2.exec_context.thread_0.statExecutedInstType::FloatCvt            0      0.00%     74.97% # Class of executed instruction. (Count)
system.cpu2.exec_context.thread_0.statExecutedInstType::FloatMult            0      0.00%     74.97% # Class of executed instruction. (Count)
system.cpu2.exec_context.thread_0.statExecutedInstType::FloatMultAcc            0      0.00%     74.97% # Class of executed instruction. (Count)
system.cpu2.exec_context.thread_0.statExecutedInstType::FloatDiv            0      0.00%     74.97% # Class of executed instruction. (Count)
system.cpu2.exec_context.thread_0.statExecutedInstType::FloatMisc            0      0.00%     74.97% # Class of executed instruction. (Count)
system.cpu2.exec_context.thread_0.statExecutedInstType::FloatSqrt            0      0.00%     74.97% # Class of executed instruction. (Count)
system.cpu2.exec_context.thread_0.statExecutedInstType::SimdAdd            0      0.00%     74.97% # Class of executed instruction. (Count)
system.cpu2.exec_context.thread_0.statExecutedInstType::SimdAddAcc            0      0.00%     74.97% # Class of executed instruction. (Count)
system.cpu2.exec_context.thread_0.statExecutedInstType::SimdAlu            0      0.00%     74.97% # Class of executed instruction. (Count)
system.cpu2.exec_context.thread_0.statExecutedInstType::SimdCmp            0      0.00%     74.97% # Class of executed instruction. (Count)
system.cpu2.exec_context.thread_0.statExecutedInstType::SimdCvt            0      0.00%     74.97% # Class of executed instruction. (Count)
system.cpu2.exec_context.thread_0.statExecutedInstType::SimdMisc            0      0.00%     74.97% # Class of executed instruction. (Count)
system.cpu2.exec_context.thread_0.statExecutedInstType::SimdMult            0      0.00%     74.97% # Class of executed instruction. (Count)
system.cpu2.exec_context.thread_0.statExecutedInstType::SimdMultAcc            0      0.00%     74.97% # Class of executed instruction. (Count)
system.cpu2.exec_context.thread_0.statExecutedInstType::SimdShift            0      0.00%     74.97% # Class of executed instruction. (Count)
system.cpu2.exec_context.thread_0.statExecutedInstType::SimdShiftAcc            0      0.00%     74.97% # Class of executed instruction. (Count)
system.cpu2.exec_context.thread_0.statExecutedInstType::SimdDiv            0      0.00%     74.97% # Class of executed instruction. (Count)
system.cpu2.exec_context.thread_0.statExecutedInstType::SimdSqrt            0      0.00%     74.97% # Class of executed instruction. (Count)
system.cpu2.exec_context.thread_0.statExecutedInstType::SimdFloatAdd            0      0.00%     74.97% # Class of executed instruction. (Count)
system.cpu2.exec_context.thread_0.statExecutedInstType::SimdFloatAlu            0      0.00%     74.97% # Class of executed instruction. (Count)
system.cpu2.exec_context.thread_0.statExecutedInstType::SimdFloatCmp            0      0.00%     74.97% # Class of executed instruction. (Count)
system.cpu2.exec_context.thread_0.statExecutedInstType::SimdFloatCvt            0      0.00%     74.97% # Class of executed instruction. (Count)
system.cpu2.exec_context.thread_0.statExecutedInstType::SimdFloatDiv            0      0.00%     74.97% # Class of executed instruction. (Count)
system.cpu2.exec_context.thread_0.statExecutedInstType::SimdFloatMisc            0      0.00%     74.97% # Class of executed instruction. (Count)
system.cpu2.exec_context.thread_0.statExecutedInstType::SimdFloatMult            0      0.00%     74.97% # Class of executed instruction. (Count)
system.cpu2.exec_context.thread_0.statExecutedInstType::SimdFloatMultAcc            0      0.00%     74.97% # Class of executed instruction. (Count)
system.cpu2.exec_context.thread_0.statExecutedInstType::SimdFloatSqrt            0      0.00%     74.97% # Class of executed instruction. (Count)
system.cpu2.exec_context.thread_0.statExecutedInstType::SimdReduceAdd            0      0.00%     74.97% # Class of executed instruction. (Count)
system.cpu2.exec_context.thread_0.statExecutedInstType::SimdReduceAlu            0      0.00%     74.97% # Class of executed instruction. (Count)
system.cpu2.exec_context.thread_0.statExecutedInstType::SimdReduceCmp            0      0.00%     74.97% # Class of executed instruction. (Count)
system.cpu2.exec_context.thread_0.statExecutedInstType::SimdFloatReduceAdd            0      0.00%     74.97% # Class of executed instruction. (Count)
system.cpu2.exec_context.thread_0.statExecutedInstType::SimdFloatReduceCmp            0      0.00%     74.97% # Class of executed instruction. (Count)
system.cpu2.exec_context.thread_0.statExecutedInstType::SimdAes            0      0.00%     74.97% # Class of executed instruction. (Count)
system.cpu2.exec_context.thread_0.statExecutedInstType::SimdAesMix            0      0.00%     74.97% # Class of executed instruction. (Count)
system.cpu2.exec_context.thread_0.statExecutedInstType::SimdSha1Hash            0      0.00%     74.97% # Class of executed instruction. (Count)
system.cpu2.exec_context.thread_0.statExecutedInstType::SimdSha1Hash2            0      0.00%     74.97% # Class of executed instruction. (Count)
system.cpu2.exec_context.thread_0.statExecutedInstType::SimdSha256Hash            0      0.00%     74.97% # Class of executed instruction. (Count)
system.cpu2.exec_context.thread_0.statExecutedInstType::SimdSha256Hash2            0      0.00%     74.97% # Class of executed instruction. (Count)
system.cpu2.exec_context.thread_0.statExecutedInstType::SimdShaSigma2            0      0.00%     74.97% # Class of executed instruction. (Count)
system.cpu2.exec_context.thread_0.statExecutedInstType::SimdShaSigma3            0      0.00%     74.97% # Class of executed instruction. (Count)
system.cpu2.exec_context.thread_0.statExecutedInstType::SimdPredAlu            0      0.00%     74.97% # Class of executed instruction. (Count)
system.cpu2.exec_context.thread_0.statExecutedInstType::MemRead      7868442     17.07%     92.04% # Class of executed instruction. (Count)
system.cpu2.exec_context.thread_0.statExecutedInstType::MemWrite      3670284      7.96%    100.00% # Class of executed instruction. (Count)
system.cpu2.exec_context.thread_0.statExecutedInstType::FloatMemRead            0      0.00%    100.00% # Class of executed instruction. (Count)
system.cpu2.exec_context.thread_0.statExecutedInstType::FloatMemWrite           12      0.00%    100.00% # Class of executed instruction. (Count)
system.cpu2.exec_context.thread_0.statExecutedInstType::IprAccess            0      0.00%    100.00% # Class of executed instruction. (Count)
system.cpu2.exec_context.thread_0.statExecutedInstType::InstPrefetch            0      0.00%    100.00% # Class of executed instruction. (Count)
system.cpu2.exec_context.thread_0.statExecutedInstType::total     46097105                       # Class of executed instruction. (Count)
system.cpu2.mmu.dtb.readHits                        0                       # read hits (Count)
system.cpu2.mmu.dtb.readMisses                      0                       # read misses (Count)
system.cpu2.mmu.dtb.readAccesses                    0                       # read accesses (Count)
system.cpu2.mmu.dtb.writeHits                       0                       # write hits (Count)
system.cpu2.mmu.dtb.writeMisses                     0                       # write misses (Count)
system.cpu2.mmu.dtb.writeAccesses                   0                       # write accesses (Count)
system.cpu2.mmu.dtb.hits                            0                       # Total TLB (read and write) hits (Count)
system.cpu2.mmu.dtb.misses                          0                       # Total TLB (read and write) misses (Count)
system.cpu2.mmu.dtb.accesses                        0                       # Total TLB (read and write) accesses (Count)
system.cpu2.mmu.dtb.walker.power_state.pwrStateResidencyTicks::UNDEFINED 462398429000                       # Cumulative time (in ticks) in various power states (Tick)
system.cpu2.mmu.itb.readHits                        0                       # read hits (Count)
system.cpu2.mmu.itb.readMisses                      0                       # read misses (Count)
system.cpu2.mmu.itb.readAccesses                    0                       # read accesses (Count)
system.cpu2.mmu.itb.writeHits                       0                       # write hits (Count)
system.cpu2.mmu.itb.writeMisses                     0                       # write misses (Count)
system.cpu2.mmu.itb.writeAccesses                   0                       # write accesses (Count)
system.cpu2.mmu.itb.hits                            0                       # Total TLB (read and write) hits (Count)
system.cpu2.mmu.itb.misses                          0                       # Total TLB (read and write) misses (Count)
system.cpu2.mmu.itb.accesses                        0                       # Total TLB (read and write) accesses (Count)
system.cpu2.mmu.itb.walker.power_state.pwrStateResidencyTicks::UNDEFINED 462398429000                       # Cumulative time (in ticks) in various power states (Tick)
system.cpu2.power_state.numTransitions        1048558                       # Number of power state transitions (Count)
system.cpu2.power_state.ticksClkGated::samples       524279                       # Distribution of time spent in the clock gated state (Tick)
system.cpu2.power_state.ticksClkGated::mean 523808.010620                       # Distribution of time spent in the clock gated state (Tick)
system.cpu2.power_state.ticksClkGated::stdev 46039.162782                       # Distribution of time spent in the clock gated state (Tick)
system.cpu2.power_state.ticksClkGated::1000-5e+10       524279    100.00%    100.00% # Distribution of time spent in the clock gated state (Tick)
system.cpu2.power_state.ticksClkGated::min_value       151000                       # Distribution of time spent in the clock gated state (Tick)
system.cpu2.power_state.ticksClkGated::max_value       615000                       # Distribution of time spent in the clock gated state (Tick)
system.cpu2.power_state.ticksClkGated::total       524279                       # Distribution of time spent in the clock gated state (Tick)
system.cpu2.power_state.pwrStateResidencyTicks::ON 187776889000                       # Cumulative time (in ticks) in various power states (Tick)
system.cpu2.power_state.pwrStateResidencyTicks::CLK_GATED 274621540000                       # Cumulative time (in ticks) in various power states (Tick)
system.cpu2.thread_0.numInsts                       0                       # Number of Instructions committed (Count)
system.cpu2.thread_0.numOps                         0                       # Number of Ops committed (Count)
system.cpu2.thread_0.numMemRefs                     0                       # Number of Memory References (Count)
system.cpu3.numCycles                       462385248                       # Number of cpu cycles simulated (Cycle)
system.cpu3.numWorkItemsStarted                     0                       # Number of work items this cpu started (Count)
system.cpu3.numWorkItemsCompleted                   0                       # Number of work items this cpu completed (Count)
system.cpu3.exec_context.thread_0.numInsts     44519483                       # Number of instructions committed (Count)
system.cpu3.exec_context.thread_0.numOps     45043778                       # Number of ops (including micro ops) committed (Count)
system.cpu3.exec_context.thread_0.numIntAluAccesses     42980409                       # Number of integer alu accesses (Count)
system.cpu3.exec_context.thread_0.numFpAluAccesses           12                       # Number of float alu accesses (Count)
system.cpu3.exec_context.thread_0.numVecAluAccesses            0                       # Number of vector alu accesses (Count)
system.cpu3.exec_context.thread_0.numCallsReturns      5242968                       # Number of times a function call or return occured (Count)
system.cpu3.exec_context.thread_0.numCondCtrlInsts      6014356                       # Number of instructions that are conditional controls (Count)
system.cpu3.exec_context.thread_0.numIntInsts     42980409                       # Number of integer instructions (Count)
system.cpu3.exec_context.thread_0.numFpInsts           12                       # Number of float instructions (Count)
system.cpu3.exec_context.thread_0.numVecInsts            0                       # Number of vector instructions (Count)
system.cpu3.exec_context.thread_0.numIntRegReads     38769015                       # Number of times the integer registers were read (Count)
system.cpu3.exec_context.thread_0.numIntRegWrites     30674263                       # Number of times the integer registers were written (Count)
system.cpu3.exec_context.thread_0.numFpRegReads           12                       # Number of times the floating registers were read (Count)
system.cpu3.exec_context.thread_0.numFpRegWrites            0                       # Number of times the floating registers were written (Count)
system.cpu3.exec_context.thread_0.numVecRegReads            0                       # Number of times the vector registers were read (Count)
system.cpu3.exec_context.thread_0.numVecRegWrites            0                       # Number of times the vector registers were written (Count)
system.cpu3.exec_context.thread_0.numVecPredRegReads            0                       # Number of times the predicate registers were read (Count)
system.cpu3.exec_context.thread_0.numVecPredRegWrites            0                       # Number of times the predicate registers were written (Count)
system.cpu3.exec_context.thread_0.numMiscRegReads      1048623                       # Number of times the Misc registers were read (Count)
system.cpu3.exec_context.thread_0.numMiscRegWrites            7                       # Number of times the Misc registers were written (Count)
system.cpu3.exec_context.thread_0.numMemRefs     11536213                       # Number of memory refs (Count)
system.cpu3.exec_context.thread_0.numLoadInsts      6817331                       # Number of load instructions (Count)
system.cpu3.exec_context.thread_0.numStoreInsts      4718882                       # Number of store instructions (Count)
system.cpu3.exec_context.thread_0.numIdleCycles 343330867.827789                       # Number of idle cycles (Cycle)
system.cpu3.exec_context.thread_0.numBusyCycles 119054380.172211                       # Number of busy cycles (Cycle)
system.cpu3.exec_context.thread_0.notIdleFraction     0.257479                       # Percentage of non-idle cycles (Ratio)
system.cpu3.exec_context.thread_0.idleFraction     0.742521                       # Percentage of idle cycles (Ratio)
system.cpu3.exec_context.thread_0.numBranches     12272109                       # Number of branches fetched (Count)
system.cpu3.exec_context.thread_0.statExecutedInstType::No_OpClass      2097186      4.55%      4.55% # Class of executed instruction. (Count)
system.cpu3.exec_context.thread_0.statExecutedInstType::IntAlu     32458964     70.42%     74.97% # Class of executed instruction. (Count)
system.cpu3.exec_context.thread_0.statExecutedInstType::IntMult            0      0.00%     74.97% # Class of executed instruction. (Count)
system.cpu3.exec_context.thread_0.statExecutedInstType::IntDiv            2      0.00%     74.97% # Class of executed instruction. (Count)
system.cpu3.exec_context.thread_0.statExecutedInstType::FloatAdd            0      0.00%     74.97% # Class of executed instruction. (Count)
system.cpu3.exec_context.thread_0.statExecutedInstType::FloatCmp            0      0.00%     74.97% # Class of executed instruction. (Count)
system.cpu3.exec_context.thread_0.statExecutedInstType::FloatCvt            0      0.00%     74.97% # Class of executed instruction. (Count)
system.cpu3.exec_context.thread_0.statExecutedInstType::FloatMult            0      0.00%     74.97% # Class of executed instruction. (Count)
system.cpu3.exec_context.thread_0.statExecutedInstType::FloatMultAcc            0      0.00%     74.97% # Class of executed instruction. (Count)
system.cpu3.exec_context.thread_0.statExecutedInstType::FloatDiv            0      0.00%     74.97% # Class of executed instruction. (Count)
system.cpu3.exec_context.thread_0.statExecutedInstType::FloatMisc            0      0.00%     74.97% # Class of executed instruction. (Count)
system.cpu3.exec_context.thread_0.statExecutedInstType::FloatSqrt            0      0.00%     74.97% # Class of executed instruction. (Count)
system.cpu3.exec_context.thread_0.statExecutedInstType::SimdAdd            0      0.00%     74.97% # Class of executed instruction. (Count)
system.cpu3.exec_context.thread_0.statExecutedInstType::SimdAddAcc            0      0.00%     74.97% # Class of executed instruction. (Count)
system.cpu3.exec_context.thread_0.statExecutedInstType::SimdAlu            0      0.00%     74.97% # Class of executed instruction. (Count)
system.cpu3.exec_context.thread_0.statExecutedInstType::SimdCmp            0      0.00%     74.97% # Class of executed instruction. (Count)
system.cpu3.exec_context.thread_0.statExecutedInstType::SimdCvt            0      0.00%     74.97% # Class of executed instruction. (Count)
system.cpu3.exec_context.thread_0.statExecutedInstType::SimdMisc            0      0.00%     74.97% # Class of executed instruction. (Count)
system.cpu3.exec_context.thread_0.statExecutedInstType::SimdMult            0      0.00%     74.97% # Class of executed instruction. (Count)
system.cpu3.exec_context.thread_0.statExecutedInstType::SimdMultAcc            0      0.00%     74.97% # Class of executed instruction. (Count)
system.cpu3.exec_context.thread_0.statExecutedInstType::SimdShift            0      0.00%     74.97% # Class of executed instruction. (Count)
system.cpu3.exec_context.thread_0.statExecutedInstType::SimdShiftAcc            0      0.00%     74.97% # Class of executed instruction. (Count)
system.cpu3.exec_context.thread_0.statExecutedInstType::SimdDiv            0      0.00%     74.97% # Class of executed instruction. (Count)
system.cpu3.exec_context.thread_0.statExecutedInstType::SimdSqrt            0      0.00%     74.97% # Class of executed instruction. (Count)
system.cpu3.exec_context.thread_0.statExecutedInstType::SimdFloatAdd            0      0.00%     74.97% # Class of executed instruction. (Count)
system.cpu3.exec_context.thread_0.statExecutedInstType::SimdFloatAlu            0      0.00%     74.97% # Class of executed instruction. (Count)
[...]
system.ruby.network.routers8.throttle02.total_stall_cy            0                       # Total time spent blocked on any output link (Cycle)
system.ruby.network.routers8.throttle02.total_bw_sat_cy     28413664                       # Total time bandwidth was saturated on any output link (Cycle)
system.ruby.network.routers8.throttle02.avg_msg_wait_time     0.143030                       # Average time a message took to be forwarded (Ratio)
system.ruby.network.routers8.throttle02.avg_bandwidth         1.03                       # Average bandwidth (GB/s) (Ratio)
system.ruby.network.routers8.throttle02.avg_useful_bandwidth         0.92                       # Average usefull (only data) bandwidth (GB/s) (Ratio)
system.ruby.network.routers8.throttle02.msg_count.Data::2      3534729                       (Unspecified)
system.ruby.network.routers8.throttle02.msg_count.Data::3      3568687                       (Unspecified)
system.ruby.network.routers8.throttle02.msg_bytes.Data::2    254500488                       (Unspecified)
system.ruby.network.routers8.throttle02.msg_bytes.Data::3    256945464                       (Unspecified)
system.ruby.network.routers8.throttle03.acc_link_utilization     38434572                       # Accumulated link utilization (Count)
system.ruby.network.routers8.throttle03.link_utilization     4.156002                       # Average link utilization (Ratio)
system.ruby.network.routers8.throttle03.total_msg_count      8541016                       # Total number of messages forwarded by this switch (Count)
system.ruby.network.routers8.throttle03.total_msg_bytes    614953152                       # Total number of bytes forwarded by this switch (Byte)
system.ruby.network.routers8.throttle03.total_data_msg_bytes    546625024                       # Total number of data bytes forwarded by this switch (Byte)
system.ruby.network.routers8.throttle03.total_msg_wait_time      2355500                       # Total time spend forwarding messages (Tick)
system.ruby.network.routers8.throttle03.total_stall_cy            0                       # Total time spent blocked on any output link (Cycle)
system.ruby.network.routers8.throttle03.total_bw_sat_cy     34164064                       # Total time bandwidth was saturated on any output link (Cycle)
system.ruby.network.routers8.throttle03.avg_msg_wait_time     0.275787                       # Average time a message took to be forwarded (Ratio)
system.ruby.network.routers8.throttle03.avg_bandwidth         1.24                       # Average bandwidth (GB/s) (Ratio)
system.ruby.network.routers8.throttle03.avg_useful_bandwidth         1.10                       # Average usefull (only data) bandwidth (GB/s) (Ratio)
system.ruby.network.routers8.throttle03.msg_count.Data::2      3534755                       (Unspecified)
system.ruby.network.routers8.throttle03.msg_count.Data::3      5006261                       (Unspecified)
system.ruby.network.routers8.throttle03.msg_bytes.Data::2    254502360                       (Unspecified)
system.ruby.network.routers8.throttle03.msg_bytes.Data::3    360450792                       (Unspecified)
system.ruby.network.routers8.throttle04.acc_link_utilization 99724000.500000                       # Accumulated link utilization (Count)
system.ruby.network.routers8.throttle04.link_utilization    10.783341                       # Average link utilization (Ratio)
system.ruby.network.routers8.throttle04.total_msg_count     22160889                       # Total number of messages forwarded by this switch (Count)
system.ruby.network.routers8.throttle04.total_msg_bytes   1595584008                       # Total number of bytes forwarded by this switch (Byte)
system.ruby.network.routers8.throttle04.total_data_msg_bytes   1418296896                       # Total number of data bytes forwarded by this switch (Byte)
system.ruby.network.routers8.throttle04.total_msg_wait_time   1176159000                       # Total time spend forwarding messages (Tick)
system.ruby.network.routers8.throttle04.total_stall_cy            0                       # Total time spent blocked on any output link (Cycle)
system.ruby.network.routers8.throttle04.total_bw_sat_cy     88643600                       # Total time bandwidth was saturated on any output link (Cycle)
system.ruby.network.routers8.throttle04.avg_msg_wait_time    53.073638                       # Average time a message took to be forwarded (Ratio)
system.ruby.network.routers8.throttle04.avg_bandwidth         3.21                       # Average bandwidth (GB/s) (Ratio)
system.ruby.network.routers8.throttle04.avg_useful_bandwidth         2.86                       # Average usefull (only data) bandwidth (GB/s) (Ratio)
system.ruby.network.routers8.throttle04.msg_count.Data::3      6511536                       (Unspecified)
system.ruby.network.routers8.throttle04.msg_count.Data::4      7072949                       (Unspecified)
system.ruby.network.routers8.throttle04.msg_count.Data::5      3534958                       (Unspecified)
system.ruby.network.routers8.throttle04.msg_count.Data::6      5041446                       (Unspecified)
system.ruby.network.routers8.throttle04.msg_bytes.Data::3    468830592                       (Unspecified)
system.ruby.network.routers8.throttle04.msg_bytes.Data::4    509252328                       (Unspecified)
system.ruby.network.routers8.throttle04.msg_bytes.Data::5    254516976                       (Unspecified)
system.ruby.network.routers8.throttle04.msg_bytes.Data::6    362984112                       (Unspecified)
system.ruby.network.routers8.throttle05.acc_link_utilization 99703489.500000                       # Accumulated link utilization (Count)
system.ruby.network.routers8.throttle05.link_utilization    10.781123                       # Average link utilization (Ratio)
system.ruby.network.routers8.throttle05.total_msg_count     22156331                       # Total number of messages forwarded by this switch (Count)
system.ruby.network.routers8.throttle05.total_msg_bytes   1595255832                       # Total number of bytes forwarded by this switch (Byte)
system.ruby.network.routers8.throttle05.total_data_msg_bytes   1418005184                       # Total number of data bytes forwarded by this switch (Byte)
system.ruby.network.routers8.throttle05.total_msg_wait_time   1175887000                       # Total time spend forwarding messages (Tick)
system.ruby.network.routers8.throttle05.total_stall_cy            0                       # Total time spent blocked on any output link (Cycle)
system.ruby.network.routers8.throttle05.total_bw_sat_cy     88625346                       # Total time bandwidth was saturated on any output link (Cycle)
system.ruby.network.routers8.throttle05.avg_msg_wait_time    53.072280                       # Average time a message took to be forwarded (Ratio)
system.ruby.network.routers8.throttle05.avg_bandwidth         3.21                       # Average bandwidth (GB/s) (Ratio)
system.ruby.network.routers8.throttle05.avg_useful_bandwidth         2.86                       # Average usefull (only data) bandwidth (GB/s) (Ratio)
system.ruby.network.routers8.throttle05.msg_count.Data::3      6511420                       (Unspecified)
system.ruby.network.routers8.throttle05.msg_count.Data::4      7069791                       (Unspecified)
system.ruby.network.routers8.throttle05.msg_count.Data::5      3534851                       (Unspecified)
system.ruby.network.routers8.throttle05.msg_count.Data::6      5040269                       (Unspecified)
system.ruby.network.routers8.throttle05.msg_bytes.Data::3    468822240                       (Unspecified)
system.ruby.network.routers8.throttle05.msg_bytes.Data::4    509024952                       (Unspecified)
system.ruby.network.routers8.throttle05.msg_bytes.Data::5    254509272                       (Unspecified)
system.ruby.network.routers8.throttle05.msg_bytes.Data::6    362899368                       (Unspecified)
system.ruby.network.routers8.throttle06.acc_link_utilization 72470317.500000                       # Accumulated link utilization (Count)
system.ruby.network.routers8.throttle06.link_utilization     7.836350                       # Average link utilization (Ratio)
system.ruby.network.routers8.throttle06.total_msg_count     16104515                       # Total number of messages forwarded by this switch (Count)
system.ruby.network.routers8.throttle06.total_msg_bytes   1159525080                       # Total number of bytes forwarded by this switch (Byte)
system.ruby.network.routers8.throttle06.total_data_msg_bytes   1030688960                       # Total number of data bytes forwarded by this switch (Byte)
system.ruby.network.routers8.throttle06.total_msg_wait_time        50000                       # Total time spend forwarding messages (Tick)
system.ruby.network.routers8.throttle06.total_stall_cy            0                       # Total time spent blocked on any output link (Cycle)
system.ruby.network.routers8.throttle06.total_bw_sat_cy     64418066                       # Total time bandwidth was saturated on any output link (Cycle)
system.ruby.network.routers8.throttle06.avg_msg_wait_time     0.003105                       # Average time a message took to be forwarded (Ratio)
system.ruby.network.routers8.throttle06.avg_bandwidth         2.34                       # Average bandwidth (GB/s) (Ratio)
system.ruby.network.routers8.throttle06.avg_useful_bandwidth         2.08                       # Average usefull (only data) bandwidth (GB/s) (Ratio)
system.ruby.network.routers8.throttle06.msg_count.Data::2      3010658                       (Unspecified)
system.ruby.network.routers8.throttle06.msg_count.Data::3      3011941                       (Unspecified)
system.ruby.network.routers8.throttle06.msg_count.Data::6      3010658                       (Unspecified)
system.ruby.network.routers8.throttle06.msg_count.Data::7      7071258                       (Unspecified)
system.ruby.network.routers8.throttle06.msg_bytes.Data::2    216767376                       (Unspecified)
system.ruby.network.routers8.throttle06.msg_bytes.Data::3    216859752                       (Unspecified)
system.ruby.network.routers8.throttle06.msg_bytes.Data::6    216767376                       (Unspecified)
system.ruby.network.routers8.throttle06.msg_bytes.Data::7    509130576                       (Unspecified)
system.ruby.network.routers8.throttle07.acc_link_utilization 27101695.500000                       # Accumulated link utilization (Count)
system.ruby.network.routers8.throttle07.link_utilization     2.930557                       # Average link utilization (Ratio)
system.ruby.network.routers8.throttle07.total_msg_count      6022599                       # Total number of messages forwarded by this switch (Count)
system.ruby.network.routers8.throttle07.total_msg_bytes    433627128                       # Total number of bytes forwarded by this switch (Byte)
system.ruby.network.routers8.throttle07.total_data_msg_bytes    385446336                       # Total number of data bytes forwarded by this switch (Byte)
system.ruby.network.routers8.throttle07.total_msg_wait_time            0                       # Total time spend forwarding messages (Tick)
system.ruby.network.routers8.throttle07.total_stall_cy            0                       # Total time spent blocked on any output link (Cycle)
system.ruby.network.routers8.throttle07.total_bw_sat_cy     24090396                       # Total time bandwidth was saturated on any output link (Cycle)
system.ruby.network.routers8.throttle07.avg_msg_wait_time            0                       # Average time a message took to be forwarded (Ratio)
system.ruby.network.routers8.throttle07.avg_bandwidth         0.87                       # Average bandwidth (GB/s) (Ratio)
system.ruby.network.routers8.throttle07.avg_useful_bandwidth         0.78                       # Average usefull (only data) bandwidth (GB/s) (Ratio)
system.ruby.network.routers8.throttle07.msg_count.Data::4      6022599                       (Unspecified)
system.ruby.network.routers8.throttle07.msg_bytes.Data::4    433627128                       (Unspecified)
system.ruby.power_state.pwrStateResidencyTicks::UNDEFINED 462398429000                       # Cumulative time (in ticks) in various power states (Tick)
system.ruby_am.power_state.pwrStateResidencyTicks::UNDEFINED 462398429000                       # Cumulative time (in ticks) in various power states (Tick)
system.sys_port_proxy.power_state.pwrStateResidencyTicks::UNDEFINED 462398429000                       # Cumulative time (in ticks) in various power states (Tick)
system.workload.inst.arm                            0                       # number of arm instructions executed (Count)
system.workload.inst.quiesce                        0                       # number of quiesce instructions executed (Count)
system.cpu0.active_message_ack_latency              0                       # active messages ACK latency (Unspecified)
system.cpu0.active_message_nack_latency             0                       # active messages NACK latency (Unspecified)
system.cpu0.appl_num_steal_failed                   0                       # number of failed steals (Unspecified)
system.cpu0.appl_num_steal_successful               0                       # number of successful steals (Unspecified)
system.cpu0.appl_steal_failed_cycles                0                       # cycles of failed steals (Unspecified)
system.cpu0.appl_steal_successful_cycles            0                       # cycles of successful steals (Unspecified)
system.cpu0.num_active_message_ack                  0                       # number of active messages ACK received (Unspecified)
system.cpu0.num_active_message_nack                 0                       # number of active messages NACK received (Unspecified)
system.cpu0.uli_req_received                        0                       # number of uli request received (Unspecified)
system.cpu0.uli_req_sent                            1                       # number of uli request sent (Unspecified)
system.cpu0.uli_resp_ack_received                   0                       # number of uli ack response received (Unspecified)
system.cpu0.uli_resp_ack_sent                       0                       # number of uli ack response sent (Unspecified)
system.cpu0.uli_resp_nack_received                  0                       # number of uli nack response received (Unspecified)
system.cpu0.uli_resp_nack_sent                      0                       # number of uli nack response sent (Unspecified)
system.cpu1.active_message_ack_latency              0                       # active messages ACK latency (Unspecified)
system.cpu1.active_message_nack_latency             0                       # active messages NACK latency (Unspecified)
system.cpu1.appl_num_steal_failed                   0                       # number of failed steals (Unspecified)
system.cpu1.appl_num_steal_successful               0                       # number of successful steals (Unspecified)
system.cpu1.appl_steal_failed_cycles                0                       # cycles of failed steals (Unspecified)
system.cpu1.appl_steal_successful_cycles            0                       # cycles of successful steals (Unspecified)
system.cpu1.num_active_message_ack                  0                       # number of active messages ACK received (Unspecified)
system.cpu1.num_active_message_nack                 0                       # number of active messages NACK received (Unspecified)
system.cpu1.uli_req_received                        1                       # number of uli request received (Unspecified)
system.cpu1.uli_req_sent                            0                       # number of uli request sent (Unspecified)
system.cpu1.uli_resp_ack_received                   0                       # number of uli ack response received (Unspecified)
system.cpu1.uli_resp_ack_sent                       0                       # number of uli ack response sent (Unspecified)
system.cpu1.uli_resp_nack_received                  0                       # number of uli nack response received (Unspecified)
system.cpu1.uli_resp_nack_sent                      0                       # number of uli nack response sent (Unspecified)
system.cpu2.active_message_ack_latency              0                       # active messages ACK latency (Unspecified)
system.cpu2.active_message_nack_latency             0                       # active messages NACK latency (Unspecified)
system.cpu2.appl_num_steal_failed                   0                       # number of failed steals (Unspecified)
system.cpu2.appl_num_steal_successful               0                       # number of successful steals (Unspecified)
system.cpu2.appl_steal_failed_cycles                0                       # cycles of failed steals (Unspecified)
system.cpu2.appl_steal_successful_cycles            0                       # cycles of successful steals (Unspecified)
system.cpu2.num_active_message_ack                  0                       # number of active messages ACK received (Unspecified)
system.cpu2.num_active_message_nack                 0                       # number of active messages NACK received (Unspecified)
system.cpu2.uli_req_received                        0                       # number of uli request received (Unspecified)
system.cpu2.uli_req_sent                            1                       # number of uli request sent (Unspecified)
system.cpu2.uli_resp_ack_received                   0                       # number of uli ack response received (Unspecified)
system.cpu2.uli_resp_ack_sent                       0                       # number of uli ack response sent (Unspecified)
system.cpu2.uli_resp_nack_received                  0                       # number of uli nack response received (Unspecified)
system.cpu2.uli_resp_nack_sent                      0                       # number of uli nack response sent (Unspecified)
system.cpu3.active_message_ack_latency              0                       # active messages ACK latency (Unspecified)
system.cpu3.active_message_nack_latency             0                       # active messages NACK latency (Unspecified)
system.cpu3.appl_num_steal_failed                   0                       # number of failed steals (Unspecified)
system.cpu3.appl_num_steal_successful               0                       # number of successful steals (Unspecified)
system.cpu3.appl_steal_failed_cycles                0                       # cycles of failed steals (Unspecified)
system.cpu3.appl_steal_successful_cycles            0                       # cycles of successful steals (Unspecified)
system.cpu3.num_active_message_ack                  0                       # number of active messages ACK received (Unspecified)
system.cpu3.num_active_message_nack                 0                       # number of active messages NACK received (Unspecified)
system.cpu3.uli_req_received                        1                       # number of uli request received (Unspecified)
system.cpu3.uli_req_sent                            0                       # number of uli request sent (Unspecified)
system.cpu3.uli_resp_ack_received                   0                       # number of uli ack response received (Unspecified)
system.cpu3.uli_resp_ack_sent                       0                       # number of uli ack response sent (Unspecified)
system.cpu3.uli_resp_nack_received                  0                       # number of uli nack response received (Unspecified)
system.cpu3.uli_resp_nack_sent                      0                       # number of uli nack response sent (Unspecified)

---------- End Simulation Statistics   ----------
