
---------- Begin Simulation Statistics ----------
simSeconds                                   0.038865                       # Number of seconds simulated (Second)
simTicks                                  38864760000                       # Number of ticks simulated (Tick)
finalTick                                 38864760000                       # Number of ticks from beginning of simulation (restored from checkpoints and never reset) (Tick)
simFreq                                  1000000000000                       # The number of ticks per simulated second ((Tick/Second))
hostSeconds                                    113.83                       # Real time elapsed on the host (Second)
hostTickRate                                341434468                       # The number of ticks simulated per host second (ticks/s) ((Tick/Second))
hostMemory                                    1966640                       # Number of bytes of host memory used (Byte)
simInsts                                     11216743                       # Number of instructions simulated (Count)
simOps                                       11347897                       # Number of ops (including micro ops) simulated (Count)
hostInstRate                                    98541                       # Simulator instruction rate (inst/s) ((Count/Second))
hostOpRate                                      99693                       # Simulator op (including micro ops) rate (op/s) ((Count/Second))
system.adapters0.cpuReqBuffer.m_msg_count            1                       # Number of messages passed the buffer (Count)
system.adapters0.cpuReqBuffer.m_buf_msgs     0.000000                       # Average number of messages in buffer ((Count/Tick))
system.adapters0.cpuReqBuffer.m_occupancy     0.000000                       # Average occupancy of buffer capacity ((Ratio/Tick))
system.adapters0.power_state.pwrStateResidencyTicks::UNDEFINED  38864760000                       # Cumulative time (in ticks) in various power states (Tick)
system.adapters1.networkReqBuffer.m_msg_count            1                       # Number of messages passed the buffer (Count)
system.adapters1.networkReqBuffer.m_buf_msgs     0.000000                       # Average number of messages in buffer ((Count/Tick))
system.adapters1.networkReqBuffer.m_occupancy     0.000000                       # Average occupancy of buffer capacity ((Ratio/Tick))
system.adapters1.power_state.pwrStateResidencyTicks::UNDEFINED  38864760000                       # Cumulative time (in ticks) in various power states (Tick)
system.adapters2.cpuReqBuffer.m_msg_count            1                       # Number of messages passed the buffer (Count)
system.adapters2.cpuReqBuffer.m_buf_msgs     0.000000                       # Average number of messages in buffer ((Count/Tick))
system.adapters2.cpuReqBuffer.m_occupancy     0.000000                       # Average occupancy of buffer capacity ((Ratio/Tick))
system.adapters2.power_state.pwrStateResidencyTicks::UNDEFINED  38864760000                       # Cumulative time (in ticks) in various power states (Tick)
system.adapters3.networkReqBuffer.m_msg_count            1                       # Number of messages passed the buffer (Count)
system.adapters3.networkReqBuffer.m_buf_msgs     0.000000                       # Average number of messages in buffer ((Count/Tick))
system.adapters3.networkReqBuffer.m_occupancy     0.000000                       # Average occupancy of buffer capacity ((Ratio/Tick))
system.adapters3.power_state.pwrStateResidencyTicks::UNDEFINED  38864760000                       # Cumulative time (in ticks) in various power states (Tick)
system.am_network.msg_count.Control                 4                       (Unspecified)
system.am_network.msg_byte.Control                 32                       (Unspecified)
system.am_network.int_links0.buffers1.m_msg_count            1                       # Number of messages passed the buffer (Count)
system.am_network.int_links0.buffers1.m_buf_msgs     0.000000                       # Average number of messages in buffer ((Count/Tick))
system.am_network.int_links2.buffers1.m_msg_count            1                       # Number of messages passed the buffer (Count)
system.am_network.int_links2.buffers1.m_buf_msgs     0.000000                       # Average number of messages in buffer ((Count/Tick))
system.am_network.power_state.pwrStateResidencyTicks::UNDEFINED  38864760000                       # Cumulative time (in ticks) in various power states (Tick)
system.am_network.routers0.percent_links_utilized     0.000001                       (Unspecified)
system.am_network.routers0.msg_count.Control::1            1                       (Unspecified)
system.am_network.routers0.msg_bytes.Control::1            8                       (Unspecified)
system.am_network.routers0.port_buffers3.m_msg_count            1                       # Number of messages passed the buffer (Count)
system.am_network.routers0.port_buffers3.m_buf_msgs     0.000000                       # Average number of messages in buffer ((Count/Tick))
system.am_network.routers0.port_buffers3.m_occupancy     0.000000                       # Average occupancy of buffer capacity ((Ratio/Tick))
system.am_network.routers0.power_state.pwrStateResidencyTicks::UNDEFINED  38864760000                       # Cumulative time (in ticks) in various power states (Tick)
system.am_network.routers0.throttle00.acc_link_utilization            0                       # Accumulated link utilization (Count)
system.am_network.routers0.throttle00.link_utilization            0                       # Average link utilization (Ratio)
system.am_network.routers0.throttle00.total_msg_count            0                       # Total number of messages forwarded by this switch (Count)
system.am_network.routers0.throttle00.total_msg_bytes            0                       # Total number of bytes forwarded by this switch (Byte)
system.am_network.routers0.throttle00.total_data_msg_bytes            0                       # Total number of data bytes forwarded by this switch (Byte)
system.am_network.routers0.throttle00.total_msg_wait_time            0                       # Total time spend forwarding messages (Tick)
system.am_network.routers0.throttle00.total_stall_cy            0                       # Total time spent blocked on any output link (Cycle)
system.am_network.routers0.throttle00.total_bw_sat_cy            0                       # Total time bandwidth was saturated on any output link (Cycle)
system.am_network.routers0.throttle00.avg_msg_wait_time          nan                       # Average time a message took to be forwarded (Ratio)
system.am_network.routers0.throttle00.avg_bandwidth         0.00                       # Average bandwidth (GB/s) (Ratio)
system.am_network.routers0.throttle00.avg_useful_bandwidth         0.00                       # Average usefull (only data) bandwidth (GB/s) (Ratio)
system.am_network.routers0.throttle01.acc_link_utilization     0.500000                       # Accumulated link utilization (Count)
system.am_network.routers0.throttle01.link_utilization     0.000001                       # Average link utilization (Ratio)
system.am_network.routers0.throttle01.total_msg_count            1                       # Total number of messages forwarded by this switch (Count)
system.am_network.routers0.throttle01.total_msg_bytes            8                       # Total number of bytes forwarded by this switch (Byte)
system.am_network.routers0.throttle01.total_data_msg_bytes            0                       # Total number of data bytes forwarded by this switch (Byte)
system.am_network.routers0.throttle01.total_msg_wait_time            0                       # Total time spend forwarding messages (Tick)
system.am_network.routers0.throttle01.total_stall_cy            0                       # Total time spent blocked on any output link (Cycle)
system.am_network.routers0.throttle01.total_bw_sat_cy            0                       # Total time bandwidth was saturated on any output link (Cycle)
system.am_network.routers0.throttle01.avg_msg_wait_time            0                       # Average time a message took to be forwarded (Ratio)
system.am_network.routers0.throttle01.avg_bandwidth         0.00                       # Average bandwidth (GB/s) (Ratio)
system.am_network.routers0.throttle01.avg_useful_bandwidth         0.00                       # Average usefull (only data) bandwidth (GB/s) (Ratio)
system.am_network.routers0.throttle01.msg_count.Control::1            1                       (Unspecified)
system.am_network.routers0.throttle01.msg_bytes.Control::1            8                       (Unspecified)
system.am_network.routers1.percent_links_utilized     0.000000                       (Unspecified)
system.am_network.routers1.msg_count.Control::1            1                       (Unspecified)
system.am_network.routers1.msg_bytes.Control::1            8                       (Unspecified)
system.am_network.routers1.port_buffers1.m_msg_count            1                       # Number of messages passed the buffer (Count)
system.am_network.routers1.port_buffers1.m_buf_msgs     0.000000                       # Average number of messages in buffer ((Count/Tick))
system.am_network.routers1.port_buffers1.m_occupancy     0.000000                       # Average occupancy of buffer capacity ((Ratio/Tick))
system.am_network.routers1.power_state.pwrStateResidencyTicks::UNDEFINED  38864760000                       # Cumulative time (in ticks) in various power states (Tick)
system.am_network.routers1.throttle00.acc_link_utilization     0.500000                       # Accumulated link utilization (Count)
system.am_network.routers1.throttle00.link_utilization     0.000001                       # Average link utilization (Ratio)
system.am_network.routers1.throttle00.total_msg_count            1                       # Total number of messages forwarded by this switch (Count)
system.am_network.routers1.throttle00.total_msg_bytes            8                       # Total number of bytes forwarded by this switch (Byte)
system.am_network.routers1.throttle00.total_data_msg_bytes            0                       # Total number of data bytes forwarded by this switch (Byte)
system.am_network.routers1.throttle00.total_msg_wait_time            0                       # Total time spend forwarding messages (Tick)
system.am_network.routers1.throttle00.total_stall_cy            0                       # Total time spent blocked on any output link (Cycle)
system.am_network.routers1.throttle00.total_bw_sat_cy            0                       # Total time bandwidth was saturated on any output link (Cycle)
system.am_network.routers1.throttle00.avg_msg_wait_time            0                       # Average time a message took to be forwarded (Ratio)
system.am_network.routers1.throttle00.avg_bandwidth         0.00                       # Average bandwidth (GB/s) (Ratio)
system.am_network.routers1.throttle00.avg_useful_bandwidth         0.00                       # Average usefull (only data) bandwidth (GB/s) (Ratio)
system.am_network.routers1.throttle00.msg_count.Control::1            1                       (Unspecified)
system.am_network.routers1.throttle00.msg_bytes.Control::1            8                       (Unspecified)
system.am_network.routers1.throttle01.acc_link_utilization            0                       # Accumulated link utilization (Count)
system.am_network.routers1.throttle01.link_utilization            0                       # Average link utilization (Ratio)
system.am_network.routers1.throttle01.total_msg_count            0                       # Total number of messages forwarded by this switch (Count)
system.am_network.routers1.throttle01.total_msg_bytes            0                       # Total number of bytes forwarded by this switch (Byte)
system.am_network.routers1.throttle01.total_data_msg_bytes            0                       # Total number of data bytes forwarded by this switch (Byte)
system.am_network.routers1.throttle01.total_msg_wait_time            0                       # Total time spend forwarding messages (Tick)
system.am_network.routers1.throttle01.total_stall_cy            0                       # Total time spent blocked on any output link (Cycle)
system.am_network.routers1.throttle01.total_bw_sat_cy            0                       # Total time bandwidth was saturated on any output link (Cycle)
system.am_network.routers1.throttle01.avg_msg_wait_time          nan                       # Average time a message took to be forwarded (Ratio)
system.am_network.routers1.throttle01.avg_bandwidth         0.00                       # Average bandwidth (GB/s) (Ratio)
system.am_network.routers1.throttle01.avg_useful_bandwidth         0.00                       # Average usefull (only data) bandwidth (GB/s) (Ratio)
system.am_network.routers1.throttle02.acc_link_utilization            0                       # Accumulated link utilization (Count)
system.am_network.routers1.throttle02.link_utilization            0                       # Average link utilization (Ratio)
system.am_network.routers1.throttle02.total_msg_count            0                       # Total number of messages forwarded by this switch (Count)
system.am_network.routers1.throttle02.total_msg_bytes            0                       # Total number of bytes forwarded by this switch (Byte)
system.am_network.routers1.throttle02.total_data_msg_bytes            0                       # Total number of data bytes forwarded by this switch (Byte)
system.am_network.routers1.throttle02.total_msg_wait_time            0                       # Total time spend forwarding messages (Tick)
system.am_network.routers1.throttle02.total_stall_cy            0                       # Total time spent blocked on any output link (Cycle)
system.am_network.routers1.throttle02.total_bw_sat_cy            0                       # Total time bandwidth was saturated on any output link (Cycle)
system.am_network.routers1.throttle02.avg_msg_wait_time          nan                       # Average time a message took to be forwarded (Ratio)
system.am_network.routers1.throttle02.avg_bandwidth         0.00                       # Average bandwidth (GB/s) (Ratio)
system.am_network.routers1.throttle02.avg_useful_bandwidth         0.00                       # Average usefull (only data) bandwidth (GB/s) (Ratio)
system.am_network.routers2.percent_links_utilized     0.000000                       (Unspecified)
system.am_network.routers2.msg_count.Control::1            1                       (Unspecified)
system.am_network.routers2.msg_bytes.Control::1            8                       (Unspecified)
system.am_network.routers2.port_buffers5.m_msg_count            1                       # Number of messages passed the buffer (Count)
system.am_network.routers2.port_buffers5.m_buf_msgs     0.000000                       # Average number of messages in buffer ((Count/Tick))
system.am_network.routers2.port_buffers5.m_occupancy     0.000000                       # Average occupancy of buffer capacity ((Ratio/Tick))
system.am_network.routers2.power_state.pwrStateResidencyTicks::UNDEFINED  38864760000                       # Cumulative time (in ticks) in various power states (Tick)
system.am_network.routers2.throttle00.acc_link_utilization            0                       # Accumulated link utilization (Count)
system.am_network.routers2.throttle00.link_utilization            0                       # Average link utilization (Ratio)
system.am_network.routers2.throttle00.total_msg_count            0                       # Total number of messages forwarded by this switch (Count)
system.am_network.routers2.throttle00.total_msg_bytes            0                       # Total number of bytes forwarded by this switch (Byte)
system.am_network.routers2.throttle00.total_data_msg_bytes            0                       # Total number of data bytes forwarded by this switch (Byte)
system.am_network.routers2.throttle00.total_msg_wait_time            0                       # Total time spend forwarding messages (Tick)
system.am_network.routers2.throttle00.total_stall_cy            0                       # Total time spent blocked on any output link (Cycle)
system.am_network.routers2.throttle00.total_bw_sat_cy            0                       # Total time bandwidth was saturated on any output link (Cycle)
system.am_network.routers2.throttle00.avg_msg_wait_time          nan                       # Average time a message took to be forwarded (Ratio)
system.am_network.routers2.throttle00.avg_bandwidth         0.00                       # Average bandwidth (GB/s) (Ratio)
system.am_network.routers2.throttle00.avg_useful_bandwidth         0.00                       # Average usefull (only data) bandwidth (GB/s) (Ratio)
system.am_network.routers2.throttle01.acc_link_utilization            0                       # Accumulated link utilization (Count)
system.am_network.routers2.throttle01.link_utilization            0                       # Average link utilization (Ratio)
system.am_network.routers2.throttle01.total_msg_count            0                       # Total number of messages forwarded by this switch (Count)
system.am_network.routers2.throttle01.total_msg_bytes            0                       # Total number of bytes forwarded by this switch (Byte)
system.am_network.routers2.throttle01.total_data_msg_bytes            0                       # Total number of data bytes forwarded by this switch (Byte)
system.am_network.routers2.throttle01.total_msg_wait_time            0                       # Total time spend forwarding messages (Tick)
system.am_network.routers2.throttle01.total_stall_cy            0                       # Total time spent blocked on any output link (Cycle)
system.am_network.routers2.throttle01.total_bw_sat_cy            0                       # Total time bandwidth was saturated on any output link (Cycle)
system.am_network.routers2.throttle01.avg_msg_wait_time          nan                       # Average time a message took to be forwarded (Ratio)
system.am_network.routers2.throttle01.avg_bandwidth         0.00                       # Average bandwidth (GB/s) (Ratio)
system.am_network.routers2.throttle01.avg_useful_bandwidth         0.00                       # Average usefull (only data) bandwidth (GB/s) (Ratio)
system.am_network.routers2.throttle02.acc_link_utilization     0.500000                       # Accumulated link utilization (Count)
system.am_network.routers2.throttle02.link_utilization     0.000001                       # Average link utilization (Ratio)
system.am_network.routers2.throttle02.total_msg_count            1                       # Total number of messages forwarded by this switch (Count)
system.am_network.routers2.throttle02.total_msg_bytes            8                       # Total number of bytes forwarded by this switch (Byte)
system.am_network.routers2.throttle02.total_data_msg_bytes            0                       # Total number of data bytes forwarded by this switch (Byte)
system.am_network.routers2.throttle02.total_msg_wait_time            0                       # Total time spend forwarding messages (Tick)
system.am_network.routers2.throttle02.total_stall_cy            0                       # Total time spent blocked on any output link (Cycle)
system.am_network.routers2.throttle02.total_bw_sat_cy            0                       # Total time bandwidth was saturated on any output link (Cycle)
system.am_network.routers2.throttle02.avg_msg_wait_time            0                       # Average time a message took to be forwarded (Ratio)
system.am_network.routers2.throttle02.avg_bandwidth         0.00                       # Average bandwidth (GB/s) (Ratio)
system.am_network.routers2.throttle02.avg_useful_bandwidth         0.00                       # Average usefull (only data) bandwidth (GB/s) (Ratio)
system.am_network.routers2.throttle02.msg_count.Control::1            1                       (Unspecified)
system.am_network.routers2.throttle02.msg_bytes.Control::1            8                       (Unspecified)
system.am_network.routers3.percent_links_utilized     0.000001                       (Unspecified)
system.am_network.routers3.msg_count.Control::1            1                       (Unspecified)
system.am_network.routers3.msg_bytes.Control::1            8                       (Unspecified)
system.am_network.routers3.port_buffers1.m_msg_count            1                       # Number of messages passed the buffer (Count)
system.am_network.routers3.port_buffers1.m_buf_msgs     0.000000                       # Average number of messages in buffer ((Count/Tick))
system.am_network.routers3.port_buffers1.m_occupancy     0.000000                       # Average occupancy of buffer capacity ((Ratio/Tick))
system.am_network.routers3.power_state.pwrStateResidencyTicks::UNDEFINED  38864760000                       # Cumulative time (in ticks) in various power states (Tick)
system.am_network.routers3.throttle00.acc_link_utilization     0.500000                       # Accumulated link utilization (Count)
system.am_network.routers3.throttle00.link_utilization     0.000001                       # Average link utilization (Ratio)
system.am_network.routers3.throttle00.total_msg_count            1                       # Total number of messages forwarded by this switch (Count)
system.am_network.routers3.throttle00.total_msg_bytes            8                       # Total number of bytes forwarded by this switch (Byte)
system.am_network.routers3.throttle00.total_data_msg_bytes            0                       # Total number of data bytes forwarded by this switch (Byte)
system.am_network.routers3.throttle00.total_msg_wait_time            0                       # Total time spend forwarding messages (Tick)
system.am_network.routers3.throttle00.total_stall_cy            0                       # Total time spent blocked on any output link (Cycle)
system.am_network.routers3.throttle00.total_bw_sat_cy            0                       # Total time bandwidth was saturated on any output link (Cycle)
system.am_network.routers3.throttle00.avg_msg_wait_time            0                       # Average time a message took to be forwarded (Ratio)
system.am_network.routers3.throttle00.avg_bandwidth         0.00                       # Average bandwidth (GB/s) (Ratio)
system.am_network.routers3.throttle00.avg_useful_bandwidth         0.00                       # Average usefull (only data) bandwidth (GB/s) (Ratio)
system.am_network.routers3.throttle00.msg_count.Control::1            1                       (Unspecified)
system.am_network.routers3.throttle00.msg_bytes.Control::1            8                       (Unspecified)
system.am_network.routers3.throttle01.acc_link_utilization            0                       # Accumulated link utilization (Count)
system.am_network.routers3.throttle01.link_utilization            0                       # Average link utilization (Ratio)
system.am_network.routers3.throttle01.total_msg_count            0                       # Total number of messages forwarded by this switch (Count)
system.am_network.routers3.throttle01.total_msg_bytes            0                       # Total number of bytes forwarded by this switch (Byte)
system.am_network.routers3.throttle01.total_data_msg_bytes            0                       # Total number of data bytes forwarded by this switch (Byte)
system.am_network.routers3.throttle01.total_msg_wait_time            0                       # Total time spend forwarding messages (Tick)
system.am_network.routers3.throttle01.total_stall_cy            0                       # Total time spent blocked on any output link (Cycle)
system.am_network.routers3.throttle01.total_bw_sat_cy            0                       # Total time bandwidth was saturated on any output link (Cycle)
system.am_network.routers3.throttle01.avg_msg_wait_time          nan                       # Average time a message took to be forwarded (Ratio)
system.am_network.routers3.throttle01.avg_bandwidth         0.00                       # Average bandwidth (GB/s) (Ratio)
system.am_network.routers3.throttle01.avg_useful_bandwidth         0.00                       # Average usefull (only data) bandwidth (GB/s) (Ratio)
system.clk_domain.clock                          1000                       # Clock period in ticks (Tick)
system.clk_domain.voltage_domain.voltage            1                       # Voltage in Volts (Volt)
system.cpu0.numCycles                        38864760                       # Number of cpu cycles simulated (Cycle)
system.cpu0.numWorkItemsStarted                     0                       # Number of work items this cpu started (Count)
system.cpu0.numWorkItemsCompleted                   0                       # Number of work items this cpu completed (Count)
system.cpu0.exec_context.thread_0.numInsts      2845961                       # Number of instructions committed (Count)
system.cpu0.exec_context.thread_0.numOps      2878786                       # Number of ops (including micro ops) committed (Count)
system.cpu0.exec_context.thread_0.numIntAluAccesses      2749349                       # Number of integer alu accesses (Count)
system.cpu0.exec_context.thread_0.numFpAluAccesses           12                       # Number of float alu accesses (Count)
system.cpu0.exec_context.thread_0.numVecAluAccesses            0                       # Number of vector alu accesses (Count)
system.cpu0.exec_context.thread_0.numCallsReturns       330503                       # Number of times a function call or return occured (Count)
system.cpu0.exec_context.thread_0.numCondCtrlInsts       386781                       # Number of instructions that are conditional controls (Count)
system.cpu0.exec_context.thread_0.numIntInsts      2749349                       # Number of integer instructions (Count)
system.cpu0.exec_context.thread_0.numFpInsts           12                       # Number of float instructions (Count)
system.cpu0.exec_context.thread_0.numVecInsts            0                       # Number of vector instructions (Count)
system.cpu0.exec_context.thread_0.numIntRegReads      2497581                       # Number of times the integer registers were read (Count)
system.cpu0.exec_context.thread_0.numIntRegWrites      1958272                       # Number of times the integer registers were written (Count)
system.cpu0.exec_context.thread_0.numFpRegReads           12                       # Number of times the floating registers were read (Count)
system.cpu0.exec_context.thread_0.numFpRegWrites            0                       # Number of times the floating registers were written (Count)
system.cpu0.exec_context.thread_0.numVecRegReads            0                       # Number of times the vector registers were read (Count)
system.cpu0.exec_context.thread_0.numVecRegWrites            0                       # Number of times the vector registers were written (Count)
system.cpu0.exec_context.thread_0.numVecPredRegReads            0                       # Number of times the predicate registers were read (Count)
system.cpu0.exec_context.thread_0.numVecPredRegWrites            0                       # Number of times the predicate registers were written (Count)
system.cpu0.exec_context.thread_0.numMiscRegReads        65614                       # Number of times the Misc registers were read (Count)
system.cpu0.exec_context.thread_0.numMiscRegWrites            7                       # Number of times the Misc registers were written (Count)
system.cpu0.exec_context.thread_0.numMemRefs       745090                       # Number of memory refs (Count)
system.cpu0.exec_context.thread_0.numLoadInsts       440601                       # Number of load instructions (Count)
system.cpu0.exec_context.thread_0.numStoreInsts       304489                       # Number of store instructions (Count)
system.cpu0.exec_context.thread_0.numIdleCycles 26303464.000323                       # Number of idle cycles (Cycle)
system.cpu0.exec_context.thread_0.numBusyCycles 12561295.999677                       # Number of busy cycles (Cycle)
system.cpu0.exec_context.thread_0.notIdleFraction     0.323205                       # Percentage of non-idle cycles (Ratio)
system.cpu0.exec_context.thread_0.idleFraction     0.676795                       # Percentage of idle cycles (Ratio)
system.cpu0.exec_context.thread_0.numBranches       781229                       # Number of branches fetched (Count)
system.cpu0.exec_context.thread_0.statExecutedInstType::No_OpClass       131278      4.46%      4.46% # Class of executed instruction. (Count)
system.cpu0.exec_context.thread_0.statExecutedInstType::IntAlu      2067973     70.23%     74.69% # Class of executed instruction. (Count)
system.cpu0.exec_context.thread_0.statExecutedInstType::IntMult           19      0.00%     74.69% # Class of executed instruction. (Count)
system.cpu0.exec_context.thread_0.statExecutedInstType::IntDiv            9      0.00%     74.69% # Class of executed instruction. (Count)
system.cpu0.exec_context.thread_0.statExecutedInstType::FloatAdd            0      0.00%     74.69% # Class of executed instruction. (Count)
system.cpu0.exec_context.thread_0.statExecutedInstType::FloatCmp            0      0.00%     74.69% # Class of executed instruction. (Count)
system.cpu0.exec_context.thread_0.statExecutedInstType::FloatCvt            0      0.00%     74.69% # Class of executed instruction. (Count)
system.cpu0.exec_context.thread_0.statExecutedInstType::FloatMult            0      0.00%     74.69% # Class of executed instruction. (Count)
system.cpu0.exec_context.thread_0.statExecutedInstType::FloatMultAcc            0      0.00%     74.69% # Class of executed instruction. (Count)
system.cpu0.exec_context.thread_0.statExecutedInstType::FloatDiv            0      0.00%     74.69% # Class of executed instruction. (Count)
system.cpu0.exec_context.thread_0.statExecutedInstType::FloatMisc            0      0.00%     74.69% # Class of executed instruction. (Count)
system.cpu0.exec_context.thread_0.statExecutedInstType::FloatSqrt            0      0.00%     74.69% # Class of executed instruction. (Count)
system.cpu0.exec_context.thread_0.statExecutedInstType::SimdAdd            0      0.00%     74.69% # Class of executed instruction. (Count)
system.cpu0.exec_context.thread_0.statExecutedInstType::SimdAddAcc            0      0.00%     74.69% # Class of executed instruction. (Count)
system.cpu0.exec_context.thread_0.statExecutedInstType::SimdAlu            0      0.00%     74.69% # Class of executed instruction. (Count)
system.cpu0.exec_context.thread_0.statExecutedInstType::SimdCmp            0      0.00%     74.69% # Class of executed instruction. (Count)
system.cpu0.exec_context.thread_0.statExecutedInstType::SimdCvt            0      0.00%     74.69% # Class of executed instruction. (Count)
system.cpu0.exec_context.thread_0.statExecutedInstType::SimdMisc            0      0.00%     74.69% # Class of executed instruction. (Count)
system.cpu0.exec_context.thread_0.statExecutedInstType::SimdMult            0      0.00%     74.69% # Class of executed instruction. (Count)
system.cpu0.exec_context.thread_0.statExecutedInstType::SimdMultAcc            0      0.00%     74.69% # Class of executed instruction. (Count)
system.cpu0.exec_context.thread_0.statExecutedInstType::SimdShift            0      0.00%     74.69% # Class of executed instruction. (Count)
system.cpu0.exec_context.thread_0.statExecutedInstType::SimdShiftAcc            0      0.00%     74.69% # Class of executed instruction. (Count)
system.cpu0.exec_context.thread_0.statExecutedInstType::SimdDiv            0      0.00%     74.69% # Class of executed instruction. (Count)
system.cpu0.exec_context.thread_0.statExecutedInstType::SimdSqrt            0      0.00%     74.69% # Class of executed instruction. (Count)
system.cpu0.exec_context.thread_0.statExecutedInstType::SimdFloatAdd            0      0.00%     74.69% # Class of executed instruction. (Count)
system.cpu0.exec_context.thread_0.statExecutedInstType::SimdFloatAlu            0      0.00%     74.69% # Class of executed instruction. (Count)
system.cpu0.exec_context.thread_0.statExecutedInstType::SimdFloatCmp            0      0.00%     74.69% # Class of executed instruction. (Count)
system.cpu0.exec_context.thread_0.statExecutedInstType::SimdFloatCvt            0      0.00%     74.69% # Class of executed instruction. (Count)
system.cpu0.exec_context.thread_0.statExecutedInstType::SimdFloatDiv            0      0.00%     74.69% # Class of executed instruction. (Count)
system.cpu0.exec_context.thread_0.statExecutedInstType::SimdFloatMisc            0      0.00%     74.69% # Class of executed instruction. (Count)
system.cpu0.exec_context.thread_0.statExecutedInstType::SimdFloatMult            0      0.00%     74.69% # Class of executed instruction. (Count)
system.cpu0.exec_context.thread_0.statExecutedInstType::SimdFloatMultAcc            0      0.00%     74.69% # Class of executed instruction. (Count)
system.cpu0.exec_context.thread_0.statExecutedInstType::SimdFloatSqrt            0      0.00%     74.69% # Class of executed instruction. (Count)
system.cpu0.exec_context.thread_0.statExecutedInstType::SimdReduceAdd            0      0.00%     74.69% # Class of executed instruction. (Count)
system.cpu0.exec_context.thread_0.statExecutedInstType::SimdReduceAlu            0      0.00%     74.69% # Class of executed instruction. (Count)
system.cpu0.exec_context.thread_0.statExecutedInstType::SimdReduceCmp            0      0.00%     74.69% # Class of executed instruction. (Count)
system.cpu0.exec_context.thread_0.statExecutedInstType::SimdFloatReduceAdd            0      0.00%     74.69% # Class of executed instruction. (Count)
system.cpu0.exec_context.thread_0.statExecutedInstType::SimdFloatReduceCmp            0      0.00%     74.69% # Class of executed instruction. (Count)
system.cpu0.exec_context.thread_0.statExecutedInstType::SimdAes            0      0.00%     74.69% # Class of executed instruction. (Count)
system.cpu0.exec_context.thread_0.statExecutedInstType::SimdAesMix            0      0.00%     74.69% # Class of executed instruction. (Count)
system.cpu0.exec_context.thread_0.statExecutedInstType::SimdSha1Hash            0      0.00%     74.69% # Class of executed instruction. (Count)
system.cpu0.exec_context.thread_0.statExecutedInstType::SimdSha1Hash2            0      0.00%     74.69% # Class of executed instruction. (Count)
system.cpu0.exec_context.thread_0.statExecutedInstType::SimdSha256Hash            0      0.00%     74.69% # Class of executed instruction. (Count)
system.cpu0.exec_context.thread_0.statExecutedInstType::SimdSha256Hash2            0      0.00%     74.69% # Class of executed instruction. (Count)
system.cpu0.exec_context.thread_0.statExecutedInstType::SimdShaSigma2            0      0.00%     74.69% # Class of executed instruction. (Count)
system.cpu0.exec_context.thread_0.statExecutedInstType::SimdShaSigma3            0      0.00%     74.69% # Class of executed instruction. (Count)
system.cpu0.exec_context.thread_0.statExecutedInstType::SimdPredAlu            0      0.00%     74.69% # Class of executed instruction. (Count)
system.cpu0.exec_context.thread_0.statExecutedInstType::MemRead       506207     17.19%     91.89% # Class of executed instruction. (Count)
system.cpu0.exec_context.thread_0.statExecutedInstType::MemWrite       238871      8.11%    100.00% # Class of executed instruction. (Count)
system.cpu0.exec_context.thread_0.statExecutedInstType::FloatMemRead            0      0.00%    100.00% # Class of executed instruction. (Count)
system.cpu0.exec_context.thread_0.statExecutedInstType::FloatMemWrite           12      0.00%    100.00% # Class of executed instruction. (Count)
system.cpu0.exec_context.thread_0.statExecutedInstType::IprAccess            0      0.00%    100.00% # Class of executed instruction. (Count)
system.cpu0.exec_context.thread_0.statExecutedInstType::InstPrefetch            0      0.00%    100.00% # Class of executed instruction. (Count)
system.cpu0.exec_context.thread_0.statExecutedInstType::total      2944369                       # Class of executed instruction. (Count)
system.cpu0.mmu.dtb.readHits                        0                       # read hits (Count)
system.cpu0.mmu.dtb.readMisses                      0                       # read misses (Count)
system.cpu0.mmu.dtb.readAccesses                    0                       # read accesses (Count)
system.cpu0.mmu.dtb.writeHits                       0                       # write hits (Count)
system.cpu0.mmu.dtb.writeMisses                     0                       # write misses (Count)
system.cpu0.mmu.dtb.writeAccesses                   0                       # write accesses (Count)
system.cpu0.mmu.dtb.hits                            0                       # Total TLB (read and write) hits (Count)
system.cpu0.mmu.dtb.misses                          0                       # Total TLB (read and write) misses (Count)
system.cpu0.mmu.dtb.accesses                        0                       # Total TLB (read and write) accesses (Count)
system.cpu0.mmu.dtb.walker.power_state.pwrStateResidencyTicks::UNDEFINED  38864760000                       # Cumulative time (in ticks) in various power states (Tick)
system.cpu0.mmu.itb.readHits                        0                       # read hits (Count)
system.cpu0.mmu.itb.readMisses                      0                       # read misses (Count)
system.cpu0.mmu.itb.readAccesses                    0                       # read accesses (Count)
system.cpu0.mmu.itb.writeHits                       0                       # write hits (Count)
system.cpu0.mmu.itb.writeMisses                     0                       # write misses (Count)
system.cpu0.mmu.itb.writeAccesses                   0                       # write accesses (Count)
system.cpu0.mmu.itb.hits                            0                       # Total TLB (read and write) hits (Count)
system.cpu0.mmu.itb.misses                          0                       # Total TLB (read and write) misses (Count)
system.cpu0.mmu.itb.accesses                        0                       # Total TLB (read and write) accesses (Count)
system.cpu0.mmu.itb.walker.power_state.pwrStateResidencyTicks::UNDEFINED  38864760000                       # Cumulative time (in ticks) in various power states (Tick)
system.cpu0.power_state.numTransitions          65542                       # Number of power state transitions (Count)
system.cpu0.power_state.ticksClkGated::samples        32771                       # Distribution of time spent in the clock gated state (Tick)
system.cpu0.power_state.ticksClkGated::mean 802644.533276                       # Distribution of time spent in the clock gated state (Tick)
system.cpu0.power_state.ticksClkGated::stdev 82925.118555                       # Distribution of time spent in the clock gated state (Tick)
system.cpu0.power_state.ticksClkGated::1000-5e+10        32771    100.00%    100.00% # Distribution of time spent in the clock gated state (Tick)
system.cpu0.power_state.ticksClkGated::min_value       114000                       # Distribution of time spent in the clock gated state (Tick)
system.cpu0.power_state.ticksClkGated::max_value      2910000                       # Distribution of time spent in the clock gated state (Tick)
system.cpu0.power_state.ticksClkGated::total        32771                       # Distribution of time spent in the clock gated state (Tick)
system.cpu0.power_state.pwrStateResidencyTicks::ON  12561296000                       # Cumulative time (in ticks) in various power states (Tick)
system.cpu0.power_state.pwrStateResidencyTicks::CLK_GATED  26303464000                       # Cumulative time (in ticks) in various power states (Tick)
system.cpu0.thread_0.numInsts                       0                       # Number of Instructions committed (Count)
system.cpu0.thread_0.numOps                         0                       # Number of Ops committed (Count)
system.cpu0.thread_0.numMemRefs                     0                       # Number of Memory References (Count)
system.cpu0.workload.numSyscalls                65574                       # Number of system calls (Count)
system.cpu1.numCycles                        38851613                       # Number of cpu cycles simulated (Cycle)
system.cpu1.numWorkItemsStarted                     0                       # Number of work items this cpu started (Count)
system.cpu1.numWorkItemsCompleted                   0                       # Number of work items this cpu completed (Count)
system.cpu1.exec_context.thread_0.numInsts      2792520                       # Number of instructions committed (Count)
system.cpu1.exec_context.thread_0.numOps      2825297                       # Number of ops (including micro ops) committed (Count)
system.cpu1.exec_context.thread_0.numIntAluAccesses      2696302                       # Number of integer alu accesses (Count)
system.cpu1.exec_context.thread_0.numFpAluAccesses           12                       # Number of float alu accesses (Count)
system.cpu1.exec_context.thread_0.numVecAluAccesses            0                       # Number of vector alu accesses (Count)
system.cpu1.exec_context.thread_0.numCallsReturns       327750                       # Number of times a function call or return occured (Count)
system.cpu1.exec_context.thread_0.numCondCtrlInsts       380298                       # Number of instructions that are conditional controls (Count)
system.cpu1.exec_context.thread_0.numIntInsts      2696302                       # Number of integer instructions (Count)
system.cpu1.exec_context.thread_0.numFpInsts           12                       # Number of float instructions (Count)
system.cpu1.exec_context.thread_0.numVecInsts            0                       # Number of vector instructions (Count)
system.cpu1.exec_context.thread_0.numIntRegReads      2433376                       # Number of times the integer registers were read (Count)
system.cpu1.exec_context.thread_0.numIntRegWrites      1922456                       # Number of times the integer registers were written (Count)
system.cpu1.exec_context.thread_0.numFpRegReads           12                       # Number of times the floating registers were read (Count)
system.cpu1.exec_context.thread_0.numFpRegWrites            0                       # Number of times the floating registers were written (Count)
system.cpu1.exec_context.thread_0.numVecRegReads            0                       # Number of times the vector registers were read (Count)
system.cpu1.exec_context.thread_0.numVecRegWrites            0                       # Number of times the vector registers were written (Count)
system.cpu1.exec_context.thread_0.numVecPredRegReads            0                       # Number of times the predicate registers were read (Count)
system.cpu1.exec_context.thread_0.numVecPredRegWrites            0                       # Number of times the predicate registers were written (Count)
system.cpu1.exec_context.thread_0.numMiscRegReads        65574                       # Number of times the Misc registers were read (Count)
system.cpu1.exec_context.thread_0.numMiscRegWrites            7                       # Number of times the Misc registers were written (Count)
system.cpu1.exec_context.thread_0.numMemRefs       725731                       # Number of memory refs (Count)
system.cpu1.exec_context.thread_0.numLoadInsts       430520                       # Number of load instructions (Count)
system.cpu1.exec_context.thread_0.numStoreInsts       295211                       # Number of store instructions (Count)
system.cpu1.exec_context.thread_0.numIdleCycles 26485786.473209                       # Number of idle cycles (Cycle)
system.cpu1.exec_context.thread_0.numBusyCycles 12365826.526791                       # Number of busy cycles (Cycle)
system.cpu1.exec_context.thread_0.notIdleFraction     0.318283                       # Percentage of non-idle cycles (Ratio)
system.cpu1.exec_context.thread_0.idleFraction     0.681717                       # Percentage of idle cycles (Ratio)
system.cpu1.exec_context.thread_0.numBranches       771497                       # Number of branches fetched (Count)
system.cpu1.exec_context.thread_0.statExecutedInstType::No_OpClass       131099      4.53%      4.53% # Class of executed instruction. (Count)
system.cpu1.exec_context.thread_0.statExecutedInstType::IntAlu      2034003     70.36%     74.90% # Class of executed instruction. (Count)
system.cpu1.exec_context.thread_0.statExecutedInstType::IntMult            0      0.00%     74.90% # Class of executed instruction. (Count)
system.cpu1.exec_context.thread_0.statExecutedInstType::IntDiv            2      0.00%     74.90% # Class of executed instruction. (Count)
system.cpu1.exec_context.thread_0.statExecutedInstType::FloatAdd            0      0.00%     74.90% # Class of executed instruction. (Count)
system.cpu1.exec_context.thread_0.statExecutedInstType::FloatCmp            0      0.00%     74.90% # Class of executed instruction. (Count)
system.cpu1.exec_context.thread_0.statExecutedInstType::FloatCvt            0      0.00%     74.90% # Class of executed instruction. (Count)
system.cpu1.exec_context.thread_0.statExecutedInstType::FloatMult            0      0.00%     74.90% # Class of executed instruction. (Count)
system.cpu1.exec_context.thread_0.statExecutedInstType::FloatMultAcc            0      0.00%     74.90% # Class of executed instruction. (Count)
system.cpu1.exec_context.thread_0.statExecutedInstType::FloatDiv            0      0.00%     74.90% # Class of executed instruction. (Count)
system.cpu1.exec_context.thread_0.statExecutedInstType::FloatMisc            0      0.00%     74.90% # Class of executed instruction. (Count)
system.cpu1.exec_context.thread_0.statExecutedInstType::FloatSqrt            0      0.00%     74.90% # Class of executed instruction. (Count)
system.cpu1.exec_context.thread_0.statExecutedInstType::SimdAdd            0      0.00%     74.90% # Class of executed instruction. (Count)
system.cpu1.exec_context.thread_0.statExecutedInstType::SimdAddAcc            0      0.00%     74.90% # Class of executed instruction. (Count)
system.cpu1.exec_context.thread_0.statExecutedInstType::SimdAlu            0      0.00%     74.90% # Class of executed instruction. (Count)
system.cpu1.exec_context.thread_0.statExecutedInstType::SimdCmp            0      0.00%     74.90% # Class of executed instruction. (Count)
system.cpu1.exec_context.thread_0.statExecutedInstType::SimdCvt            0      0.00%     74.90% # Class of executed instruction. (Count)
system.cpu1.exec_context.thread_0.statExecutedInstType::SimdMisc            0      0.00%     74.90% # Class of executed instruction. (Count)
system.cpu1.exec_context.thread_0.statExecutedInstType::SimdMult            0      0.00%     74.90% # Class of executed instruction. (Count)
system.cpu1.exec_context.thread_0.statExecutedInstType::SimdMultAcc            0      0.00%     74.90% # Class of executed instruction. (Count)
system.cpu1.exec_context.thread_0.statExecutedInstType::SimdShift            0      0.00%     74.90% # Class of executed instruction. (Count)
system.cpu1.exec_context.thread_0.statExecutedInstType::SimdShiftAcc            0      0.00%     74.90% # Class of executed instruction. (Count)
system.cpu1.exec_context.thread_0.statExecutedInstType::SimdDiv            0      0.00%     74.90% # Class of executed instruction. (Count)
system.cpu1.exec_context.thread_0.statExecutedInstType::SimdSqrt            0      0.00%     74.90% # Class of executed instruction. (Count)
system.cpu1.exec_context.thread_0.statExecutedInstType::SimdFloatAdd            0      0.00%     74.90% # Class of executed instruction. (Count)
system.cpu1.exec_context.thread_0.statExecutedInstType::SimdFloatAlu            0      0.00%     74.90% # Class of executed instruction. (Count)
system.cpu1.exec_context.thread_0.statExecutedInstType::SimdFloatCmp            0      0.00%     74.90% # Class of executed instruction. (Count)
system.cpu1.exec_context.thread_0.statExecutedInstType::SimdFloatCvt            0      0.00%     74.90% # Class of executed instruction. (Count)
system.cpu1.exec_context.thread_0.statExecutedInstType::SimdFloatDiv            0      0.00%     74.90% # Class of executed instruction. (Count)
system.cpu1.exec_context.thread_0.statExecutedInstType::SimdFloatMisc            0      0.00%     74.90% # Class of executed instruction. (Count)
system.cpu1.exec_context.thread_0.statExecutedInstType::SimdFloatMult            0      0.00%     74.90% # Class of executed instruction. (Count)
system.cpu1.exec_context.thread_0.statExecutedInstType::SimdFloatMultAcc            0      0.00%     74.90% # Class of executed instruction. (Count)
system.cpu1.exec_context.thread_0.statExecutedInstType::SimdFloatSqrt            0      0.00%     74.90% # Class of executed instruction. (Count)
system.cpu1.exec_context.thread_0.statExecutedInstType::SimdReduceAdd            0      0.00%     74.90% # Class of executed instruction. (Count)
system.cpu1.exec_context.thread_0.statExecutedInstType::SimdReduceAlu            0      0.00%     74.90% # Class of executed instruction. (Count)
system.cpu1.exec_context.thread_0.statExecutedInstType::SimdReduceCmp            0      0.00%     74.90% # Class of executed instruction. (Count)
system.cpu1.exec_context.thread_0.statExecutedInstType::SimdFloatReduceAdd            0      0.00%     74.90% # Class of executed instruction. (Count)
system.cpu1.exec_context.thread_0.statExecutedInstType::SimdFloatReduceCmp            0      0.00%     74.90% # Class of executed instruction. (Count)
system.cpu1.exec_context.thread_0.statExecutedInstType::SimdAes            0      0.00%     74.90% # Class of executed instruction. (Count)
system.cpu1.exec_context.thread_0.statExecutedInstType::SimdAesMix            0      0.00%     74.90% # Class of executed instruction. (Count)
system.cpu1.exec_context.thread_0.statExecutedInstType::SimdSha1Hash            0      0.00%     74.90% # Class of executed instruction. (Count)
system.cpu1.exec_context.thread_0.statExecutedInstType::SimdSha1Hash2            0      0.00%     74.90% # Class of executed instruction. (Count)
system.cpu1.exec_context.thread_0.statExecutedInstType::SimdSha256Hash            0      0.00%     74.90% # Class of executed instruction. (Count)
system.cpu1.exec_context.thread_0.statExecutedInstType::SimdSha256Hash2            0      0.00%     74.90% # Class of executed instruction. (Count)
system.cpu1.exec_context.thread_0.statExecutedInstType::SimdShaSigma2            0      0.00%     74.90% # Class of executed instruction. (Count)
system.cpu1.exec_context.thread_0.statExecutedInstType::SimdShaSigma3            0      0.00%     74.90% # Class of executed instruction. (Count)
system.cpu1.exec_context.thread_0.statExecutedInstType::SimdPredAlu            0      0.00%     74.90% # Class of executed instruction. (Count)
system.cpu1.exec_context.thread_0.statExecutedInstType::MemRead       496065     17.16%     92.06% # Class of executed instruction. (Count)
system.cpu1.exec_context.thread_0.statExecutedInstType::MemWrite       229654      7.94%    100.00% # Class of executed instruction. (Count)
system.cpu1.exec_context.thread_0.statExecutedInstType::FloatMemRead            0      0.00%    100.00% # Class of executed instruction. (Count)
system.cpu1.exec_context.thread_0.statExecutedInstType::FloatMemWrite           12      0.00%    100.00% # Class of executed instruction. (Count)
system.cpu1.exec_context.thread_0.statExecutedInstType::IprAccess            0      0.00%    100.00% # Class of executed instruction. (Count)
system.cpu1.exec_context.thread_0.statExecutedInstType::InstPrefetch            0      0.00%    100.00% # Class of executed instruction. (Count)
system.cpu1.exec_context.thread_0.statExecutedInstType::total      2890835                       # Class of executed instruction. (Count)
system.cpu1.mmu.dtb.readHits                        0                       # read hits (Count)
system.cpu1.mmu.dtb.readMisses                      0                       # read misses (Count)
system.cpu1.mmu.dtb.readAccesses                    0                       # read accesses (Count)
system.cpu1.mmu.dtb.writeHits                       0                       # write hits (Count)
system.cpu1.mmu.dtb.writeMisses                     0                       # write misses (Count)
system.cpu1.mmu.dtb.writeAccesses                   0                       # write accesses (Count)
system.cpu1.mmu.dtb.hits                            0                       # Total TLB (read and write) hits (Count)
system.cpu1.mmu.dtb.misses                          0                       # Total TLB (read and write) misses (Count)
system.cpu1.mmu.dtb.accesses                        0                       # Total TLB (read and write) accesses (Count)
system.cpu1.mmu.dtb.walker.power_state.pwrStateResidencyTicks::UNDEFINED  38864760000                       # Cumulative time (in ticks) in various power states (Tick)
system.cpu1.mmu.itb.readHits                        0                       # read hits (Count)
system.cpu1.mmu.itb.readMisses                      0                       # read misses (Count)
system.cpu1.mmu.itb.readAccesses                    0                       # read accesses (Count)
system.cpu1.mmu.itb.writeHits                       0                       # write hits (Count)
system.cpu1.mmu.itb.writeMisses                     0                       # write misses (Count)
system.cpu1.mmu.itb.writeAccesses                   0                       # write accesses (Count)
system.cpu1.mmu.itb.hits                            0                       # Total TLB (read and write) hits (Count)
system.cpu1.mmu.itb.misses                          0                       # Total TLB (read and write) misses (Count)
system.cpu1.mmu.itb.accesses                        0                       # Total TLB (read and write) accesses (Count)
system.cpu1.mmu.itb.walker.power_state.pwrStateResidencyTicks::UNDEFINED  38864760000                       # Cumulative time (in ticks) in various power states (Tick)
system.cpu1.power_state.numTransitions          65532                       # Number of power state transitions (Count)
system.cpu1.power_state.ticksClkGated::samples        32766                       # Distribution of time spent in the clock gated state (Tick)
system.cpu1.power_state.ticksClkGated::mean 802699.017274                       # Distribution of time spent in the clock gated state (Tick)
system.cpu1.power_state.ticksClkGated::stdev 81863.295790                       # Distribution of time spent in the clock gated state (Tick)
system.cpu1.power_state.ticksClkGated::1000-5e+10        32766    100.00%    100.00% # Distribution of time spent in the clock gated state (Tick)
system.cpu1.power_state.ticksClkGated::min_value       147000                       # Distribution of time spent in the clock gated state (Tick)
system.cpu1.power_state.ticksClkGated::max_value      1766000                       # Distribution of time spent in the clock gated state (Tick)
system.cpu1.power_state.ticksClkGated::total        32766                       # Distribution of time spent in the clock gated state (Tick)
system.cpu1.power_state.pwrStateResidencyTicks::ON  12563524000                       # Cumulative time (in ticks) in various power states (Tick)
system.cpu1.power_state.pwrStateResidencyTicks::CLK_GATED  26301236000                       # Cumulative time (in ticks) in various power states (Tick)
system.cpu1.thread_0.numInsts                       0                       # Number of Instructions committed (Count)
system.cpu1.thread_0.numOps                         0                       # Number of Ops committed (Count)
system.cpu1.thread_0.numMemRefs                     0                       # Number of Memory References (Count)
system.cpu2.numCycles                        38851320                       # Number of cpu cycles simulated (Cycle)
system.cpu2.numWorkItemsStarted                     0                       # Number of work items this cpu started (Count)
system.cpu2.numWorkItemsCompleted                   0                       # Number of work items this cpu completed (Count)
system.cpu2.exec_context.thread_0.numInsts      2791668                       # Number of instructions committed (Count)
system.cpu2.exec_context.thread_0.numOps      2824446                       # Number of ops (including micro ops) committed (Count)
system.cpu2.exec_context.thread_0.numIntAluAccesses      2695465                       # Number of integer alu accesses (Count)
system.cpu2.exec_context.thread_0.numFpAluAccesses           12                       # Number of float alu accesses (Count)
system.cpu2.exec_context.thread_0.numVecAluAccesses            0                       # Number of vector alu accesses (Count)
system.cpu2.exec_context.thread_0.numCallsReturns       327709                       # Number of times a function call or return occured (Count)
system.cpu2.exec_context.thread_0.numCondCtrlInsts       380014                       # Number of instructions that are conditional controls (Count)
system.cpu2.exec_context.thread_0.numIntInsts      2695465                       # Number of integer instructions (Count)
system.cpu2.exec_context.thread_0.numFpInsts           12                       # Number of float instructions (Count)
system.cpu2.exec_context.thread_0.numVecInsts            0                       # Number of vector instructions (Count)
system.cpu2.exec_context.thread_0.numIntRegReads      2432612                       # Number of times the integer registers were read (Count)
system.cpu2.exec_context.thread_0.numIntRegWrites      1921939                       # Number of times the integer registers were written (Count)
system.cpu2.exec_context.thread_0.numFpRegReads           12                       # Number of times the floating registers were read (Count)
system.cpu2.exec_context.thread_0.numFpRegWrites            0                       # Number of times the floating registers were written (Count)
system.cpu2.exec_context.thread_0.numVecRegReads            0                       # Number of times the vector registers were read (Count)
system.cpu2.exec_context.thread_0.numVecRegWrites            0                       # Number of times the vector registers were written (Count)
system.cpu2.exec_context.thread_0.numVecPredRegReads            0                       # Number of times the predicate registers were read (Count)
system.cpu2.exec_context.thread_0.numVecPredRegWrites            0                       # Number of times the predicate registers were written (Count)
system.cpu2.exec_context.thread_0.numMiscRegReads        65560                       # Number of times the Misc registers were read (Count)
system.cpu2.exec_context.thread_0.numMiscRegWrites            7                       # Number of times the Misc registers were written (Count)
system.cpu2.exec_context.thread_0.numMemRefs       725420                       # Number of memory refs (Count)
system.cpu2.exec_context.thread_0.numLoadInsts       430225                       # Number of load instructions (Count)
system.cpu2.exec_context.thread_0.numStoreInsts       295195                       # Number of store instructions (Count)
system.cpu2.exec_context.thread_0.numIdleCycles 26482159.915720                       # Number of idle cycles (Cycle)
system.cpu2.exec_context.thread_0.numBusyCycles 12369160.084280                       # Number of busy cycles (Cycle)
system.cpu2.exec_context.thread_0.notIdleFraction     0.318372                       # Percentage of non-idle cycles (Ratio)
system.cpu2.exec_context.thread_0.idleFraction     0.681628                       # Percentage of idle cycles (Ratio)
system.cpu2.exec_context.thread_0.numBranches       771157                       # Number of branches fetched (Count)
system.cpu2.exec_context.thread_0.statExecutedInstType::No_OpClass       131085      4.54%      4.54% # Class of executed instruction. (Count)
system.cpu2.exec_context.thread_0.statExecutedInstType::IntAlu      2033459     70.36%     74.90% # Class of executed instruction. (Count)
system.cpu2.exec_context.thread_0.statExecutedInstType::IntMult            0      0.00%     74.90% # Class of executed instruction. (Count)
system.cpu2.exec_context.thread_0.statExecutedInstType::IntDiv            2      0.00%     74.90% # Class of executed instruction. (Count)
system.cpu2.exec_context.thread_0.statExecutedInstType::FloatAdd            0      0.00%     74.90% # Class of executed instruction. (Count)
system.cpu2.exec_context.thread_0.statExecutedInstType::FloatCmp            0      0.00%     74.90% # Class of executed instruction. (Count)
system.cpu2.exec_context.thread_0.statExecutedInstType::FloatCvt            0      0.00%     74.90% # Class of executed instruction. (Count)
system.cpu2.exec_context.thread_0.statExecutedInstType::FloatMult            0      0.00%     74.90% # Class of executed instruction. (Count)
system.cpu2.exec_context.thread_0.statExecutedInstType::FloatMultAcc            0      0.00%     74.90% # Class of executed instruction. (Count)
system.cpu2.exec_context.thread_0.statExecutedInstType::FloatDiv            0      0.00%     74.90% # Class of executed instruction. (Count)
system.cpu2.exec_context.thread_0.statExecutedInstType::FloatMisc            0      0.00%     74.90% # Class of executed instruction. (Count)
system.cpu2.exec_context.thread_0.statExecutedInstType::FloatSqrt            0      0.00%     74.90% # Class of executed instruction. (Count)
system.cpu2.exec_context.thread_0.statExecutedInstType::SimdAdd            0      0.00%     74.90% # Class of executed instruction. (Count)
system.cpu2.exec_context.thread_0.statExecutedInstType::SimdAddAcc            0      0.00%     74.90% # Class of executed instruction. (Count)
system.cpu2.exec_context.thread_0.statExecutedInstType::SimdAlu            0      0.00%     74.90% # Class of executed instruction. (Count)
system.cpu2.exec_context.thread_0.statExecutedInstType::SimdCmp            0      0.00%     74.90% # Class of executed instruction. (Count)
system.cpu2.exec_context.thread_0.statExecutedInstType::SimdCvt            0      0.00%     74.90% # Class of executed instruction. (Count)
system.cpu2.exec_context.thread_0.statExecutedInstType::SimdMisc            0      0.00%     74.90% # Class of executed instruction. (Count)
system.cpu2.exec_context.thread_0.statExecutedInstType::SimdMult            0      0.00%     74.90% # Class of executed instruction. (Count)
system.cpu2.exec_context.thread_0.statExecutedInstType::SimdMultAcc            0      0.00%     74.90% # Class of executed instruction. (Count)
system.cpu2.exec_context.thread_0.statExecutedInstType::SimdShift            0      0.00%     74.90% # Class of executed instruction. (Count)
system.cpu2.exec_context.thread_0.statExecutedInstType::SimdShiftAcc            0      0.00%     74.90% # Class of executed instruction. (Count)
system.cpu2.exec_context.thread_0.statExecutedInstType::SimdDiv            0      0.00%     74.90% # Class of executed instruction. (Count)
system.cpu2.exec_context.thread_0.statExecutedInstType::SimdSqrt            0      0.00%     74.90% # Class of executed instruction. (Count)
system.cpu2.exec_context.thread_0.statExecutedInstType::SimdFloatAdd            0      0.00%     74.90% # Class of executed instruction. (Count)
system.cpu2.exec_context.thread_0.statExecutedInstType::SimdFloatAlu            0      0.00%     74.90% # Class of executed instruction. (Count)
system.cpu2.exec_context.thread_0.statExecutedInstType::SimdFloatCmp            0      0.00%     74.90% # Class of executed instruction. (Count)
system.cpu2.exec_context.thread_0.statExecutedInstType::SimdFloatCvt            0      0.00%     74.90% # Class of executed instruction. (Count)
system.cpu2.exec_context.thread_0.statExecutedInstType::SimdFloatDiv            0      0.00%     74.90% # Class of executed instruction. (Count)
system.cpu2.exec_context.thread_0.statExecutedInstType::SimdFloatMisc            0      0.00%     74.90% # Class of executed instruction. (Count)
system.cpu2.exec_context.thread_0.statExecutedInstType::SimdFloatMult            0      0.00%     74.90% # Class of executed instruction. (Count)
system.cpu2.exec_context.thread_0.statExecutedInstType::SimdFloatMultAcc            0      0.00%     74.90% # Class of executed instruction. (Count)
system.cpu2.exec_context.thread_0.statExecutedInstType::SimdFloatSqrt            0      0.00%     74.90% # Class of executed instruction. (Count)
system.cpu2.exec_context.thread_0.statExecutedInstType::SimdReduceAdd            0      0.00%     74.90% # Class of executed instruction. (Count)
system.cpu2.exec_context.thread_0.statExecutedInstType::SimdReduceAlu            0      0.00%     74.90% # Class of executed instruction. (Count)
system.cpu2.exec_context.thread_0.statExecutedInstType::SimdReduceCmp            0      0.00%     74.90% # Class of executed instruction. (Count)
system.cpu2.exec_context.thread_0.statExecutedInstType::SimdFloatReduceAdd            0      0.00%     74.90% # Class of executed instruction. (Count)
system.cpu2.exec_context.thread_0.statExecutedInstType::SimdFloatReduceCmp            0      0.00%     74.90% # Class of executed instruction. (Count)
system.cpu2.exec_context.thread_0.statExecutedInstType::SimdAes            0      0.00%     74.90% # Class of executed instruction. (Count)
system.cpu2.exec_context.thread_0.statExecutedInstType::SimdAesMix            0      0.00%     74.90% # Class of executed instruction. (Count)
system.cpu2.exec_context.thread_0.statExecutedInstType::SimdSha1Hash            0      0.00%     74.90% # Class of executed instruction. (Count)
system.cpu2.exec_context.thread_0.statExecutedInstType::SimdSha1Hash2            0      0.00%     74.90% # Class of executed instruction. (Count)
system.cpu2.exec_context.thread_0.statExecutedInstType::SimdSha256Hash            0      0.00%     74.90% # Class of executed instruction. (Count)
system.cpu2.exec_context.thread_0.statExecutedInstType::SimdSha256Hash2            0      0.00%     74.90% # Class of executed instruction. (Count)
system.cpu2.exec_context.thread_0.statExecutedInstType::SimdShaSigma2            0      0.00%     74.90% # Class of executed instruction. (Count)
system.cpu2.exec_context.thread_0.statExecutedInstType::SimdShaSigma3            0      0.00%     74.90% # Class of executed instruction. (Count)
system.cpu2.exec_context.thread_0.statExecutedInstType::SimdPredAlu            0      0.00%     74.90% # Class of executed instruction. (Count)
system.cpu2.exec_context.thread_0.statExecutedInstType::MemRead       495762     17.15%     92.05% # Class of executed instruction. (Count)
system.cpu2.exec_context.thread_0.statExecutedInstType::MemWrite       229646      7.95%    100.00% # Class of executed instruction. (Count)
system.cpu2.exec_context.thread_0.statExecutedInstType::FloatMemRead            0      0.00%    100.00% # Class of executed instruction. (Count)
system.cpu2.exec_context.thread_0.statExecutedInstType::FloatMemWrite           12      0.00%    100.00% # Class of executed instruction. (Count)
system.cpu2.exec_context.thread_0.statExecutedInstType::IprAccess            0      0.00%    100.00% # Class of executed instruction. (Count)
system.cpu2.exec_context.thread_0.statExecutedInstType::InstPrefetch            0      0.00%    100.00% # Class of executed instruction. (Count)
system.cpu2.exec_context.thread_0.statExecutedInstType::total      2889966                       # Class of executed instruction. (Count)
system.cpu2.mmu.dtb.readHits                        0                       # read hits (Count)
system.cpu2.mmu.dtb.readMisses                      0                       # read misses (Count)
system.cpu2.mmu.dtb.readAccesses                    0                       # read accesses (Count)
system.cpu2.mmu.dtb.writeHits                       0                       # write hits (Count)
system.cpu2.mmu.dtb.writeMisses                     0                       # write misses (Count)
system.cpu2.mmu.dtb.writeAccesses                   0                       # write accesses (Count)
system.cpu2.mmu.dtb.hits                            0                       # Total TLB (read and write) hits (Count)
system.cpu2.mmu.dtb.misses                          0                       # Total TLB (read and write) misses (Count)
system.cpu2.mmu.dtb.accesses                        0                       # Total TLB (read and write) accesses (Count)
system.cpu2.mmu.dtb.walker.power_state.pwrStateResidencyTicks::UNDEFINED  38864760000                       # Cumulative time (in ticks) in various power states (Tick)
system.cpu2.mmu.itb.readHits                        0                       # read hits (Count)
system.cpu2.mmu.itb.readMisses                      0                       # read misses (Count)
system.cpu2.mmu.itb.readAccesses                    0                       # read accesses (Count)
system.cpu2.mmu.itb.writeHits                       0                       # write hits (Count)
system.cpu2.mmu.itb.writeMisses                     0                       # write misses (Count)
system.cpu2.mmu.itb.writeAccesses                   0                       # write accesses (Count)
system.cpu2.mmu.itb.hits                            0                       # Total TLB (read and write) hits (Count)
system.cpu2.mmu.itb.misses                          0                       # Total TLB (read and write) misses (Count)
system.cpu2.mmu.itb.accesses                        0                       # Total TLB (read and write) accesses (Count)
system.cpu2.mmu.itb.walker.power_state.pwrStateResidencyTicks::UNDEFINED  38864760000                       # Cumulative time (in ticks) in various power states (Tick)
system.cpu2.power_state.numTransitions          65512                       # Number of power state transitions (Count)
system.cpu2.power_state.ticksClkGated::samples        32756                       # Distribution of time spent in the clock gated state (Tick)
system.cpu2.power_state.ticksClkGated::mean 802709.915741                       # Distribution of time spent in the clock gated state (Tick)
system.cpu2.power_state.ticksClkGated::stdev 81694.314193                       # Distribution of time spent in the clock gated state (Tick)
system.cpu2.power_state.ticksClkGated::1000-5e+10        32756    100.00%    100.00% # Distribution of time spent in the clock gated state (Tick)
system.cpu2.power_state.ticksClkGated::min_value       224000                       # Distribution of time spent in the clock gated state (Tick)
system.cpu2.power_state.ticksClkGated::max_value       869000                       # Distribution of time spent in the clock gated state (Tick)
system.cpu2.power_state.ticksClkGated::total        32756                       # Distribution of time spent in the clock gated state (Tick)
system.cpu2.power_state.pwrStateResidencyTicks::ON  12571194000                       # Cumulative time (in ticks) in various power states (Tick)
system.cpu2.power_state.pwrStateResidencyTicks::CLK_GATED  26293566000                       # Cumulative time (in ticks) in various power states (Tick)
system.cpu2.thread_0.numInsts                       0                       # Number of Instructions committed (Count)
system.cpu2.thread_0.numOps                         0                       # Number of Ops committed (Count)
system.cpu2.thread_0.numMemRefs                     0                       # Number of Memory References (Count)
system.cpu3.numCycles                        38851320                       # Number of cpu cycles simulated (Cycle)
system.cpu3.numWorkItemsStarted                     0                       # Number of work items this cpu started (Count)
system.cpu3.numWorkItemsCompleted                   0                       # Number of work items this cpu completed (Count)
system.cpu3.exec_context.thread_0.numInsts      2786594                       # Number of instructions committed (Count)
system.cpu3.exec_context.thread_0.numOps      2819368                       # Number of ops (including micro ops) committed (Count)
system.cpu3.exec_context.thread_0.numIntAluAccesses      2690371                       # Number of integer alu accesses (Count)
system.cpu3.exec_context.thread_0.numFpAluAccesses           12                       # Number of float alu accesses (Count)
system.cpu3.exec_context.thread_0.numVecAluAccesses            0                       # Number of vector alu accesses (Count)
system.cpu3.exec_context.thread_0.numCallsReturns       327760                       # Number of times a function call or return occured (Count)
system.cpu3.exec_context.thread_0.numCondCtrlInsts       377320                       # Number of instructions that are conditional controls (Count)
system.cpu3.exec_context.thread_0.numIntInsts      2690371                       # Number of integer instructions (Count)
system.cpu3.exec_context.thread_0.numFpInsts           12                       # Number of float instructions (Count)
system.cpu3.exec_context.thread_0.numVecInsts            0                       # Number of vector instructions (Count)
system.cpu3.exec_context.thread_0.numIntRegReads      2427405                       # Number of times the integer registers were read (Count)
system.cpu3.exec_context.thread_0.numIntRegWrites      1919505                       # Number of times the integer registers were written (Count)
system.cpu3.exec_context.thread_0.numFpRegReads           12                       # Number of times the floating registers were read (Count)
system.cpu3.exec_context.thread_0.numFpRegWrites            0                       # Number of times the floating registers were written (Count)
system.cpu3.exec_context.thread_0.numVecRegReads            0                       # Number of times the vector registers were read (Count)
system.cpu3.exec_context.thread_0.numVecRegWrites            0                       # Number of times the vector registers were written (Count)
system.cpu3.exec_context.thread_0.numVecPredRegReads            0                       # Number of times the predicate registers were read (Count)
system.cpu3.exec_context.thread_0.numVecPredRegWrites            0                       # Number of times the predicate registers were written (Count)
system.cpu3.exec_context.thread_0.numMiscRegReads        65578                       # Number of times the Misc registers were read (Count)
system.cpu3.exec_context.thread_0.numMiscRegWrites            7                       # Number of times the Misc registers were written (Count)
system.cpu3.exec_context.thread_0.numMemRefs       722748                       # Number of memory refs (Count)
system.cpu3.exec_context.thread_0.numLoadInsts       427547                       # Number of load instructions (Count)
system.cpu3.exec_context.thread_0.numStoreInsts       295201                       # Number of store instructions (Count)
system.cpu3.exec_context.thread_0.numIdleCycles 26491604.648464                       # Number of idle cycles (Cycle)
system.cpu3.exec_context.thread_0.numBusyCycles 12359715.351536                       # Number of busy cycles (Cycle)
system.cpu3.exec_context.thread_0.notIdleFraction     0.318129                       # Percentage of non-idle cycles (Ratio)
system.cpu3.exec_context.thread_0.idleFraction     0.681871                       # Percentage of idle cycles (Ratio)
system.cpu3.exec_context.thread_0.numBranches       768534                       # Number of branches fetched (Count)
system.cpu3.exec_context.thread_0.statExecutedInstType::No_OpClass       131100      4.54%      4.54% # Class of executed instruction. (Count)
system.cpu3.exec_context.thread_0.statExecutedInstType::IntAlu      2031060     70.40%     74.95% # Class of executed instruction. (Count)
system.cpu3.exec_context.thread_0.statExecutedInstType::IntMult            0      0.00%     74.95% # Class of executed instruction. (Count)
system.cpu3.exec_context.thread_0.statExecutedInstType::IntDiv            2      0.00%     74.95% # Class of executed instruction. (Count)
system.cpu3.exec_context.thread_0.statExecutedInstType::FloatAdd            0      0.00%     74.95% # Class of executed instruction. (Count)
system.cpu3.exec_context.thread_0.statExecutedInstType::FloatCmp            0      0.00%     74.95% # Class of executed instruction. (Count)
system.cpu3.exec_context.thread_0.statExecutedInstType::FloatCvt            0      0.00%     74.95% # Class of executed instruction. (Count)
system.cpu3.exec_context.thread_0.statExecutedInstType::FloatMult            0      0.00%     74.95% # Class of executed instruction. (Count)
system.cpu3.exec_context.thread_0.statExecutedInstType::FloatMultAcc            0      0.00%     74.95% # Class of executed instruction. (Count)
system.cpu3.exec_context.thread_0.statExecutedInstType::FloatDiv            0      0.00%     74.95% # Class of executed instruction. (Count)
system.cpu3.exec_context.thread_0.statExecutedInstType::FloatMisc            0      0.00%     74.95% # Class of executed instruction. (Count)
system.cpu3.exec_context.thread_0.statExecutedInstType::FloatSqrt            0      0.00%     74.95% # Class of executed instruction. (Count)
system.cpu3.exec_context.thread_0.statExecutedInstType::SimdAdd            0      0.00%     74.95% # Class of executed instruction. (Count)
system.cpu3.exec_context.thread_0.statExecutedInstType::SimdAddAcc            0      0.00%     74.95% # Class of executed instruction. (Count)
system.cpu3.exec_context.thread_0.statExecutedInstType::SimdAlu            0      0.00%     74.95% # Class of executed instruction. (Count)
system.cpu3.exec_context.thread_0.statExecutedInstType::SimdCmp            0      0.00%     74.95% # Class of executed instruction. (Count)
system.cpu3.exec_context.thread_0.statExecutedInstType::SimdCvt            0      0.00%     74.95% # Class of executed instruction. (Count)
system.cpu3.exec_context.thread_0.statExecutedInstType::SimdMisc            0      0.00%     74.95% # Class of executed instruction. (Count)
system.cpu3.exec_context.thread_0.statExecutedInstType::SimdMult            0      0.00%     74.95% # Class of executed instruction. (Count)
system.cpu3.exec_context.thread_0.statExecutedInstType::SimdMultAcc            0      0.00%     74.95% # Class of executed instruction. (Count)
system.cpu3.exec_context.thread_0.statExecutedInstType::SimdShift            0      0.00%     74.95% # Class of executed instruction. (Count)
system.cpu3.exec_context.thread_0.statExecutedInstType::SimdShiftAcc            0      0.00%     74.95% # Class of executed instruction. (Count)
system.cpu3.exec_context.thread_0.statExecutedInstType::SimdDiv            0      0.00%     74.95% # Class of executed instruction. (Count)
system.cpu3.exec_context.thread_0.statExecutedInstType::SimdSqrt            0      0.00%     74.95% # Class of executed instruction. (Count)
system.cpu3.exec_context.thread_0.statExecutedInstType::SimdFloatAdd            0      0.00%     74.95% # Class of executed instruction. (Count)
system.cpu3.exec_context.thread_0.statExecutedInstType::SimdFloatAlu            0      0.00%     74.95% # Class of executed instruction. (Count)
[...]
system.ruby.network.routers8.throttle02.total_stall_cy            0                       # Total time spent blocked on any output link (Cycle)
system.ruby.network.routers8.throttle02.total_bw_sat_cy      1776440                       # Total time bandwidth was saturated on any output link (Cycle)
system.ruby.network.routers8.throttle02.avg_msg_wait_time     0.151989                       # Average time a message took to be forwarded (Ratio)
system.ruby.network.routers8.throttle02.avg_bandwidth         0.77                       # Average bandwidth (GB/s) (Ratio)
system.ruby.network.routers8.throttle02.avg_useful_bandwidth         0.68                       # Average usefull (only data) bandwidth (GB/s) (Ratio)
system.ruby.network.routers8.throttle02.msg_count.Data::2       220933                       (Unspecified)
system.ruby.network.routers8.throttle02.msg_count.Data::3       223177                       (Unspecified)
system.ruby.network.routers8.throttle02.msg_bytes.Data::2     15907176                       (Unspecified)
system.ruby.network.routers8.throttle02.msg_bytes.Data::3     16068744                       (Unspecified)
system.ruby.network.routers8.throttle03.acc_link_utilization 1998913.500000                       # Accumulated link utilization (Count)
system.ruby.network.routers8.throttle03.link_utilization     2.571627                       # Average link utilization (Ratio)
system.ruby.network.routers8.throttle03.total_msg_count       444203                       # Total number of messages forwarded by this switch (Count)
system.ruby.network.routers8.throttle03.total_msg_bytes     31982616                       # Total number of bytes forwarded by this switch (Byte)
system.ruby.network.routers8.throttle03.total_data_msg_bytes     28428992                       # Total number of data bytes forwarded by this switch (Byte)
system.ruby.network.routers8.throttle03.total_msg_wait_time        72000                       # Total time spend forwarding messages (Tick)
system.ruby.network.routers8.throttle03.total_stall_cy            0                       # Total time spent blocked on any output link (Cycle)
system.ruby.network.routers8.throttle03.total_bw_sat_cy      1776812                       # Total time bandwidth was saturated on any output link (Cycle)
system.ruby.network.routers8.throttle03.avg_msg_wait_time     0.162088                       # Average time a message took to be forwarded (Ratio)
system.ruby.network.routers8.throttle03.avg_bandwidth         0.77                       # Average bandwidth (GB/s) (Ratio)
system.ruby.network.routers8.throttle03.avg_useful_bandwidth         0.68                       # Average usefull (only data) bandwidth (GB/s) (Ratio)
system.ruby.network.routers8.throttle03.msg_count.Data::2       220953                       (Unspecified)
system.ruby.network.routers8.throttle03.msg_count.Data::3       223250                       (Unspecified)
system.ruby.network.routers8.throttle03.msg_bytes.Data::2     15908616                       (Unspecified)
system.ruby.network.routers8.throttle03.msg_bytes.Data::3     16074000                       (Unspecified)
system.ruby.network.routers8.throttle04.acc_link_utilization      9535923                       # Accumulated link utilization (Count)
system.ruby.network.routers8.throttle04.link_utilization    12.268084                       # Average link utilization (Ratio)
system.ruby.network.routers8.throttle04.total_msg_count      2119094                       # Total number of messages forwarded by this switch (Count)
system.ruby.network.routers8.throttle04.total_msg_bytes    152574768                       # Total number of bytes forwarded by this switch (Byte)
system.ruby.network.routers8.throttle04.total_data_msg_bytes    135622016                       # Total number of data bytes forwarded by this switch (Byte)
system.ruby.network.routers8.throttle04.total_msg_wait_time     73088000                       # Total time spend forwarding messages (Tick)
system.ruby.network.routers8.throttle04.total_stall_cy            0                       # Total time spent blocked on any output link (Cycle)
system.ruby.network.routers8.throttle04.total_bw_sat_cy      8476421                       # Total time bandwidth was saturated on any output link (Cycle)
system.ruby.network.routers8.throttle04.avg_msg_wait_time    34.490211                       # Average time a message took to be forwarded (Ratio)
system.ruby.network.routers8.throttle04.avg_bandwidth         3.66                       # Average bandwidth (GB/s) (Ratio)
system.ruby.network.routers8.throttle04.avg_useful_bandwidth         3.25                       # Average usefull (only data) bandwidth (GB/s) (Ratio)
system.ruby.network.routers8.throttle04.msg_count.Data::3       621636                       (Unspecified)
system.ruby.network.routers8.throttle04.msg_count.Data::4       445349                       (Unspecified)
system.ruby.network.routers8.throttle04.msg_count.Data::5       433490                       (Unspecified)
system.ruby.network.routers8.throttle04.msg_count.Data::6       618619                       (Unspecified)
system.ruby.network.routers8.throttle04.msg_bytes.Data::3     44757792                       (Unspecified)
system.ruby.network.routers8.throttle04.msg_bytes.Data::4     32065128                       (Unspecified)
system.ruby.network.routers8.throttle04.msg_bytes.Data::5     31211280                       (Unspecified)
system.ruby.network.routers8.throttle04.msg_bytes.Data::6     44540568                       (Unspecified)
system.ruby.network.routers8.throttle05.acc_link_utilization      9515484                       # Accumulated link utilization (Count)
system.ruby.network.routers8.throttle05.link_utilization    12.241789                       # Average link utilization (Ratio)
system.ruby.network.routers8.throttle05.total_msg_count      2114552                       # Total number of messages forwarded by this switch (Count)
system.ruby.network.routers8.throttle05.total_msg_bytes    152247744                       # Total number of bytes forwarded by this switch (Byte)
system.ruby.network.routers8.throttle05.total_data_msg_bytes    135331328                       # Total number of data bytes forwarded by this switch (Byte)
system.ruby.network.routers8.throttle05.total_msg_wait_time     73075000                       # Total time spend forwarding messages (Tick)
system.ruby.network.routers8.throttle05.total_stall_cy            0                       # Total time spent blocked on any output link (Cycle)
system.ruby.network.routers8.throttle05.total_bw_sat_cy      8458234                       # Total time bandwidth was saturated on any output link (Cycle)
system.ruby.network.routers8.throttle05.avg_msg_wait_time    34.558148                       # Average time a message took to be forwarded (Ratio)
system.ruby.network.routers8.throttle05.avg_bandwidth         3.65                       # Average bandwidth (GB/s) (Ratio)
system.ruby.network.routers8.throttle05.avg_useful_bandwidth         3.24                       # Average usefull (only data) bandwidth (GB/s) (Ratio)
system.ruby.network.routers8.throttle05.msg_count.Data::3       621536                       (Unspecified)
system.ruby.network.routers8.throttle05.msg_count.Data::4       442197                       (Unspecified)
system.ruby.network.routers8.throttle05.msg_count.Data::5       433373                       (Unspecified)
system.ruby.network.routers8.throttle05.msg_count.Data::6       617446                       (Unspecified)
system.ruby.network.routers8.throttle05.msg_bytes.Data::3     44750592                       (Unspecified)
system.ruby.network.routers8.throttle05.msg_bytes.Data::4     31838184                       (Unspecified)
system.ruby.network.routers8.throttle05.msg_bytes.Data::5     31202856                       (Unspecified)
system.ruby.network.routers8.throttle05.msg_bytes.Data::6     44456112                       (Unspecified)
system.ruby.network.routers8.throttle06.acc_link_utilization 8880556.500000                       # Accumulated link utilization (Count)
system.ruby.network.routers8.throttle06.link_utilization    11.424947                       # Average link utilization (Ratio)
system.ruby.network.routers8.throttle06.total_msg_count      1973457                       # Total number of messages forwarded by this switch (Count)
system.ruby.network.routers8.throttle06.total_msg_bytes    142088904                       # Total number of bytes forwarded by this switch (Byte)
system.ruby.network.routers8.throttle06.total_data_msg_bytes    126301248                       # Total number of data bytes forwarded by this switch (Byte)
system.ruby.network.routers8.throttle06.total_msg_wait_time        55000                       # Total time spend forwarding messages (Tick)
system.ruby.network.routers8.throttle06.total_stall_cy            0                       # Total time spent blocked on any output link (Cycle)
system.ruby.network.routers8.throttle06.total_bw_sat_cy      7893834                       # Total time bandwidth was saturated on any output link (Cycle)
system.ruby.network.routers8.throttle06.avg_msg_wait_time     0.027870                       # Average time a message took to be forwarded (Ratio)
system.ruby.network.routers8.throttle06.avg_bandwidth         3.40                       # Average bandwidth (GB/s) (Ratio)
system.ruby.network.routers8.throttle06.avg_useful_bandwidth         3.03                       # Average usefull (only data) bandwidth (GB/s) (Ratio)
system.ruby.network.routers8.throttle06.msg_count.Data::2       367953                       (Unspecified)
system.ruby.network.routers8.throttle06.msg_count.Data::3       369236                       (Unspecified)
system.ruby.network.routers8.throttle06.msg_count.Data::6       367953                       (Unspecified)
system.ruby.network.routers8.throttle06.msg_count.Data::7       868315                       (Unspecified)
system.ruby.network.routers8.throttle06.msg_bytes.Data::2     26492616                       (Unspecified)
system.ruby.network.routers8.throttle06.msg_bytes.Data::3     26584992                       (Unspecified)
system.ruby.network.routers8.throttle06.msg_bytes.Data::6     26492616                       (Unspecified)
system.ruby.network.routers8.throttle06.msg_bytes.Data::7     62518680                       (Unspecified)
system.ruby.network.routers8.throttle07.acc_link_utilization 3317350.500000                       # Accumulated link utilization (Count)
system.ruby.network.routers8.throttle07.link_utilization     4.267813                       # Average link utilization (Ratio)
system.ruby.network.routers8.throttle07.total_msg_count       737189                       # Total number of messages forwarded by this switch (Count)
system.ruby.network.routers8.throttle07.total_msg_bytes     53077608                       # Total number of bytes forwarded by this switch (Byte)
system.ruby.network.routers8.throttle07.total_data_msg_bytes     47180096                       # Total number of data bytes forwarded by this switch (Byte)
system.ruby.network.routers8.throttle07.total_msg_wait_time            0                       # Total time spend forwarding messages (Tick)
system.ruby.network.routers8.throttle07.total_stall_cy            0                       # Total time spent blocked on any output link (Cycle)
system.ruby.network.routers8.throttle07.total_bw_sat_cy      2948756                       # Total time bandwidth was saturated on any output link (Cycle)
system.ruby.network.routers8.throttle07.avg_msg_wait_time            0                       # Average time a message took to be forwarded (Ratio)
system.ruby.network.routers8.throttle07.avg_bandwidth         1.27                       # Average bandwidth (GB/s) (Ratio)
system.ruby.network.routers8.throttle07.avg_useful_bandwidth         1.13                       # Average usefull (only data) bandwidth (GB/s) (Ratio)
system.ruby.network.routers8.throttle07.msg_count.Data::4       737189                       (Unspecified)
system.ruby.network.routers8.throttle07.msg_bytes.Data::4     53077608                       (Unspecified)
system.ruby.power_state.pwrStateResidencyTicks::UNDEFINED  38864760000                       # Cumulative time (in ticks) in various power states (Tick)
system.ruby_am.power_state.pwrStateResidencyTicks::UNDEFINED  38864760000                       # Cumulative time (in ticks) in various power states (Tick)
system.sys_port_proxy.power_state.pwrStateResidencyTicks::UNDEFINED  38864760000                       # Cumulative time (in ticks) in various power states (Tick)
system.workload.inst.arm                            0                       # number of arm instructions executed (Count)
system.workload.inst.quiesce                        0                       # number of quiesce instructions executed (Count)
system.cpu0.active_message_ack_latency              0                       # active messages ACK latency (Unspecified)
system.cpu0.active_message_nack_latency             0                       # active messages NACK latency (Unspecified)
system.cpu0.appl_num_steal_failed                   0                       # number of failed steals (Unspecified)
system.cpu0.appl_num_steal_successful               0                       # number of successful steals (Unspecified)
system.cpu0.appl_steal_failed_cycles                0                       # cycles of failed steals (Unspecified)
system.cpu0.appl_steal_successful_cycles            0                       # cycles of successful steals (Unspecified)
system.cpu0.num_active_message_ack                  0                       # number of active messages ACK received (Unspecified)
system.cpu0.num_active_message_nack                 0                       # number of active messages NACK received (Unspecified)
system.cpu0.uli_req_received                        0                       # number of uli request received (Unspecified)
system.cpu0.uli_req_sent                            1                       # number of uli request sent (Unspecified)
system.cpu0.uli_resp_ack_received                   0                       # number of uli ack response received (Unspecified)
system.cpu0.uli_resp_ack_sent                       0                       # number of uli ack response sent (Unspecified)
system.cpu0.uli_resp_nack_received                  0                       # number of uli nack response received (Unspecified)
system.cpu0.uli_resp_nack_sent                      0                       # number of uli nack response sent (Unspecified)
system.cpu1.active_message_ack_latency              0                       # active messages ACK latency (Unspecified)
system.cpu1.active_message_nack_latency             0                       # active messages NACK latency (Unspecified)
system.cpu1.appl_num_steal_failed                   0                       # number of failed steals (Unspecified)
system.cpu1.appl_num_steal_successful               0                       # number of successful steals (Unspecified)
system.cpu1.appl_steal_failed_cycles                0                       # cycles of failed steals (Unspecified)
system.cpu1.appl_steal_successful_cycles            0                       # cycles of successful steals (Unspecified)
system.cpu1.num_active_message_ack                  0                       # number of active messages ACK received (Unspecified)
system.cpu1.num_active_message_nack                 0                       # number of active messages NACK received (Unspecified)
system.cpu1.uli_req_received                        1                       # number of uli request received (Unspecified)
system.cpu1.uli_req_sent                            0                       # number of uli request sent (Unspecified)
system.cpu1.uli_resp_ack_received                   0                       # number of uli ack response received (Unspecified)
system.cpu1.uli_resp_ack_sent                       0                       # number of uli ack response sent (Unspecified)
system.cpu1.uli_resp_nack_received                  0                       # number of uli nack response received (Unspecified)
system.cpu1.uli_resp_nack_sent                      0                       # number of uli nack response sent (Unspecified)
system.cpu2.active_message_ack_latency              0                       # active messages ACK latency (Unspecified)
system.cpu2.active_message_nack_latency             0                       # active messages NACK latency (Unspecified)
system.cpu2.appl_num_steal_failed                   0                       # number of failed steals (Unspecified)
system.cpu2.appl_num_steal_successful               0                       # number of successful steals (Unspecified)
system.cpu2.appl_steal_failed_cycles                0                       # cycles of failed steals (Unspecified)
system.cpu2.appl_steal_successful_cycles            0                       # cycles of successful steals (Unspecified)
system.cpu2.num_active_message_ack                  0                       # number of active messages ACK received (Unspecified)
system.cpu2.num_active_message_nack                 0                       # number of active messages NACK received (Unspecified)
system.cpu2.uli_req_received                        0                       # number of uli request received (Unspecified)
system.cpu2.uli_req_sent                            1                       # number of uli request sent (Unspecified)
system.cpu2.uli_resp_ack_received                   0                       # number of uli ack response received (Unspecified)
system.cpu2.uli_resp_ack_sent                       0                       # number of uli ack response sent (Unspecified)
system.cpu2.uli_resp_nack_received                  0                       # number of uli nack response received (Unspecified)
system.cpu2.uli_resp_nack_sent                      0                       # number of uli nack response sent (Unspecified)
system.cpu3.active_message_ack_latency              0                       # active messages ACK latency (Unspecified)
system.cpu3.active_message_nack_latency             0                       # active messages NACK latency (Unspecified)
system.cpu3.appl_num_steal_failed                   0                       # number of failed steals (Unspecified)
system.cpu3.appl_num_steal_successful               0                       # number of successful steals (Unspecified)
system.cpu3.appl_steal_failed_cycles                0                       # cycles of failed steals (Unspecified)
system.cpu3.appl_steal_successful_cycles            0                       # cycles of successful steals (Unspecified)
system.cpu3.num_active_message_ack                  0                       # number of active messages ACK received (Unspecified)
system.cpu3.num_active_message_nack                 0                       # number of active messages NACK received (Unspecified)
system.cpu3.uli_req_received                        1                       # number of uli request received (Unspecified)
system.cpu3.uli_req_sent                            0                       # number of uli request sent (Unspecified)
system.cpu3.uli_resp_ack_received                   0                       # number of uli ack response received (Unspecified)
system.cpu3.uli_resp_ack_sent                       0                       # number of uli ack response sent (Unspecified)
system.cpu3.uli_resp_nack_received                  0                       # number of uli nack response received (Unspecified)
system.cpu3.uli_resp_nack_sent                      0                       # number of uli nack response sent (Unspecified)

---------- End Simulation Statistics   ----------
